data_crystal
 
_cell_length_a    6.90110
_cell_length_b    15.27720
_cell_length_c    15.28010
_cell_angle_alpha 117.71600
_cell_angle_beta  98.66520
_cell_angle_gamma 98.66900
 
_symmetry_space_group_name_Hall 'P 1'
_symmetry_space_group_name_H-M  'P 1'
 
loop_
_symmetry_equiv_pos_as_xyz
 'x,y,z' 
 
loop_
_atom_site_label
_atom_site_type_symbol
_atom_site_fract_x
_atom_site_fract_y
_atom_site_fract_z
_atom_site_charge
C          C       0.03221   0.89978   0.46545   0.0000000000
C          C       0.08175   0.46415   0.91408   0.0000000000
C          C       0.13241   0.56586   0.10015   0.0000000000
C          C       0.16770   0.08595   0.55027   0.0000000000
C          C       0.17942   0.43229   0.82759   0.0000000000
C          C       0.19421   0.98722   0.51592   0.0000000000
C          C       0.20697   0.52871   0.01274   0.0000000000
C          C       0.25300   0.60487   0.43228   0.0000000000
C          C       0.32177   0.51596   0.52871   0.0000000000
C          C       0.35187   0.17245   0.60503   0.0000000000
C          C       0.38250   0.55019   0.46417   0.0000000000
C          C       0.43338   0.46559   0.56584   0.0000000000
C          C       0.56662   0.53441   0.43416   0.0000000000
C          C       0.61750   0.44981   0.53583   0.0000000000
C          C       0.64813   0.82755   0.39497   0.0000000000
C          C       0.67823   0.48404   0.47129   0.0000000000
C          C       0.74700   0.39513   0.56772   0.0000000000
C          C       0.79303   0.47129   0.98726   0.0000000000
C          C       0.80579   0.01278   0.48408   0.0000000000
C          C       0.82058   0.56771   0.17241   0.0000000000
C          C       0.83230   0.91405   0.44973   0.0000000000
C          C       0.86759   0.43414   0.89985   0.0000000000
C          C       0.91825   0.53585   0.08592   0.0000000000
C          C       0.96779   0.10022   0.53455   0.0000000000
H          H       0.18182   0.52916   0.55119   0.0000000000
H          H       0.34735   0.97790   0.52907   0.0000000000
H          H       0.36942   0.55119   0.02203   0.0000000000
H          H       0.63058   0.44881   0.97797   0.0000000000
H          H       0.65265   0.02210   0.47093   0.0000000000
H          H       0.81818   0.47084   0.44881   0.0000000000
O          O       0.06753   0.37052   0.73654   0.0000000000
O          O       0.07280   0.80753   0.43476   0.0000000000
O          O       0.09714   0.62249   0.46629   0.0000000000
O          O       0.26526   0.62756   0.19233   0.0000000000
O          O       0.30308   0.63420   0.37047   0.0000000000
O          O       0.33109   0.26355   0.63438   0.0000000000
O          O       0.36219   0.43500   0.62754   0.0000000000
O          O       0.36932   0.46628   0.84396   0.0000000000
O          O       0.47464   0.84396   0.37733   0.0000000000
O          O       0.52536   0.15604   0.62267   0.0000000000
O          O       0.63068   0.53372   0.15604   0.0000000000
O          O       0.63781   0.56500   0.37246   0.0000000000
O          O       0.66891   0.73645   0.36562   0.0000000000
O          O       0.69692   0.36580   0.62953   0.0000000000
O          O       0.73474   0.37244   0.80767   0.0000000000
O          O       0.90286   0.37751   0.53371   0.0000000000
O          O       0.92720   0.19247   0.56524   0.0000000000
O          O       0.93247   0.62948   0.26346   0.0000000000
Co         Co      0.11160   0.32739   0.59302   0.0000000000
Co         Co      0.21579   0.73457   0.32719   0.0000000000
Co         Co      0.48127   0.59295   0.26539   0.0000000000
Co         Co      0.51873   0.40705   0.73461   0.0000000000
Co         Co      0.78421   0.26543   0.67281   0.0000000000
Co         Co      0.88840   0.67261   0.40698   0.0000000000
