data_crystal
 
_cell_length_a    6.70351
_cell_length_b    15.49750
_cell_length_c    15.50950
_cell_angle_alpha 117.84000
_cell_angle_beta  98.29170
_cell_angle_gamma 98.31890
 
_symmetry_space_group_name_Hall 'P 1'
_symmetry_space_group_name_H-M  'P 1'
 
loop_
_symmetry_equiv_pos_as_xyz
 'x,y,z' 
 
loop_
_atom_site_label
_atom_site_type_symbol
_atom_site_fract_x
_atom_site_fract_y
_atom_site_fract_z
_atom_site_charge
C          C       0.03457   0.90178   0.46912   0.0000000000
C          C       0.08575   0.46453   0.91532   0.0000000000
C          C       0.13274   0.56770   0.09802   0.0000000000
C          C       0.17050   0.08477   0.54963   0.0000000000
C          C       0.19122   0.42975   0.83127   0.0000000000
C          C       0.19889   0.98791   0.51964   0.0000000000
C          C       0.21093   0.53175   0.01196   0.0000000000
C          C       0.23852   0.59864   0.42954   0.0000000000
C          C       0.32081   0.51969   0.53168   0.0000000000
C          C       0.36011   0.16891   0.59922   0.0000000000
C          C       0.37878   0.54930   0.46442   0.0000000000
C          C       0.43496   0.46951   0.56774   0.0000000000
C          C       0.56504   0.53049   0.43226   0.0000000000
C          C       0.62122   0.45070   0.53558   0.0000000000
C          C       0.63989   0.83109   0.40078   0.0000000000
C          C       0.67919   0.48031   0.46832   0.0000000000
C          C       0.76148   0.40136   0.57046   0.0000000000
C          C       0.78907   0.46826   0.98805   0.0000000000
C          C       0.80111   0.01209   0.48036   0.0000000000
C          C       0.80878   0.57026   0.16873   0.0000000000
C          C       0.82950   0.91523   0.45037   0.0000000000
C          C       0.86726   0.43231   0.90198   0.0000000000
C          C       0.91425   0.53548   0.08468   0.0000000000
C          C       0.96543   0.09822   0.53088   0.0000000000
H          H       0.17957   0.53550   0.55616   0.0000000000
H          H       0.35594   0.97916   0.53544   0.0000000000
H          H       0.37670   0.55629   0.02061   0.0000000000
H          H       0.62330   0.44372   0.97940   0.0000000000
H          H       0.64406   0.02084   0.46456   0.0000000000
H          H       0.82043   0.46450   0.44384   0.0000000000
O          O       0.10144   0.34992   0.74655   0.0000000000
O          O       0.07900   0.81065   0.43941   0.0000000000
O          O       0.10411   0.63353   0.47795   0.0000000000
O          O       0.26832   0.62943   0.18898   0.0000000000
O          O       0.24845   0.60377   0.34972   0.0000000000
O          O       0.35532   0.25394   0.60442   0.0000000000
O          O       0.36112   0.44011   0.62950   0.0000000000
O          O       0.37414   0.47823   0.84472   0.0000000000
O          O       0.47065   0.84475   0.36585   0.0000000000
O          O       0.52935   0.15525   0.63415   0.0000000000
O          O       0.62586   0.52178   0.15528   0.0000000000
O          O       0.63888   0.55989   0.37050   0.0000000000
O          O       0.64468   0.74606   0.39558   0.0000000000
O          O       0.75155   0.39624   0.65028   0.0000000000
O          O       0.73168   0.37058   0.81102   0.0000000000
O          O       0.89589   0.36647   0.52205   0.0000000000
O          O       0.92100   0.18935   0.56059   0.0000000000
O          O       0.89856   0.65009   0.25345   0.0000000000
Cr         Cr      0.11970   0.31289   0.57543   0.0000000000
Cr         Cr      0.19314   0.73788   0.31227   0.0000000000
Cr         Cr      0.45522   0.57498   0.26199   0.0000000000
Cr         Cr      0.54478   0.42503   0.73801   0.0000000000
Cr         Cr      0.80686   0.26213   0.68773   0.0000000000
Cr         Cr      0.88030   0.68711   0.42457   0.0000000000
