data_crystal
 
_cell_length_a    6.93017
_cell_length_b    15.22600
_cell_length_c    15.22660
_cell_angle_alpha 117.73800
_cell_angle_beta  98.72560
_cell_angle_gamma 98.72780
 
_symmetry_space_group_name_Hall 'P 1'
_symmetry_space_group_name_H-M  'P 1'
 
loop_
_symmetry_equiv_pos_as_xyz
 'x,y,z' 
 
loop_
_atom_site_label
_atom_site_type_symbol
_atom_site_fract_x
_atom_site_fract_y
_atom_site_fract_z
_atom_site_charge
C          C       0.18124   0.43302   0.82784   0.0000000000
C          C       0.08214   0.46427   0.91402   0.0000000000
C          C       0.86835   0.43262   0.89882   0.0000000000
C          C       0.79417   0.46987   0.98656   0.0000000000
C          C       0.35339   0.17215   0.60518   0.0000000000
C          C       0.16811   0.08597   0.55024   0.0000000000
C          C       0.96951   0.10115   0.53378   0.0000000000
C          C       0.80760   0.01342   0.48329   0.0000000000
C          C       0.74822   0.39483   0.56697   0.0000000000
C          C       0.61785   0.44974   0.53570   0.0000000000
C          C       0.43571   0.46620   0.56735   0.0000000000
C          C       0.32427   0.51668   0.53009   0.0000000000
C          C       0.81875   0.56694   0.17211   0.0000000000
C          C       0.91786   0.53569   0.08594   0.0000000000
C          C       0.13164   0.56733   0.10112   0.0000000000
C          C       0.20583   0.53009   0.01340   0.0000000000
C          C       0.64662   0.82784   0.39478   0.0000000000
C          C       0.83190   0.91403   0.44971   0.0000000000
C          C       0.03049   0.89883   0.46616   0.0000000000
C          C       0.19241   0.98657   0.51666   0.0000000000
C          C       0.25179   0.60517   0.43301   0.0000000000
C          C       0.38214   0.55024   0.46426   0.0000000000
C          C       0.56428   0.53379   0.43262   0.0000000000
C          C       0.67572   0.48331   0.46988   0.0000000000
H          H       0.63228   0.44645   0.97692   0.0000000000
H          H       0.65535   0.02306   0.46951   0.0000000000
H          H       0.18580   0.53046   0.55351   0.0000000000
H          H       0.36771   0.55351   0.02303   0.0000000000
H          H       0.34466   0.97694   0.53045   0.0000000000
H          H       0.81419   0.46953   0.44647   0.0000000000
O          O       0.06925   0.37106   0.73586   0.0000000000
O          O       0.37015   0.46577   0.84367   0.0000000000
O          O       0.73664   0.37041   0.80598   0.0000000000
O          O       0.33338   0.26413   0.63520   0.0000000000
O          O       0.52646   0.15631   0.62210   0.0000000000
O          O       0.93065   0.19401   0.56442   0.0000000000
O          O       0.69819   0.36480   0.62893   0.0000000000
O          O       0.90438   0.37791   0.53422   0.0000000000
O          O       0.36622   0.43557   0.62957   0.0000000000
O          O       0.93074   0.62889   0.26410   0.0000000000
O          O       0.62984   0.53420   0.15629   0.0000000000
O          O       0.26336   0.62955   0.19398   0.0000000000
O          O       0.66662   0.73585   0.36476   0.0000000000
O          O       0.47354   0.84367   0.37785   0.0000000000
O          O       0.06935   0.80598   0.43551   0.0000000000
O          O       0.30181   0.63518   0.37103   0.0000000000
O          O       0.09566   0.62212   0.46578   0.0000000000
O          O       0.63379   0.56443   0.37041   0.0000000000
Mg         Mg      0.78731   0.26758   0.67284   0.0000000000
Mg         Mg      0.11447   0.32716   0.59474   0.0000000000
Mg         Mg      0.51973   0.40525   0.73240   0.0000000000
Mg         Mg      0.21269   0.73239   0.32711   0.0000000000
Mg         Mg      0.88554   0.67284   0.40523   0.0000000000
Mg         Mg      0.48028   0.59472   0.26756   0.0000000000
