data_crystal
 
_cell_length_a    7.16270
_cell_length_b    15.46860
_cell_length_c    15.48650
_cell_angle_alpha 117.49700
_cell_angle_beta  98.87580
_cell_angle_gamma 98.91000
 
_symmetry_space_group_name_Hall 'P 1'
_symmetry_space_group_name_H-M  'P 1'
 
loop_
_symmetry_equiv_pos_as_xyz
 'x,y,z' 
 
loop_
_atom_site_label
_atom_site_type_symbol
_atom_site_fract_x
_atom_site_fract_y
_atom_site_fract_z
_atom_site_charge
C          C       0.03060   0.90090   0.46547   0.0000000000
C          C       0.07698   0.46444   0.91465   0.0000000000
C          C       0.12962   0.56510   0.09884   0.0000000000
C          C       0.16244   0.08547   0.55033   0.0000000000
C          C       0.17253   0.43376   0.82985   0.0000000000
C          C       0.18681   0.98776   0.51570   0.0000000000
C          C       0.19899   0.52804   0.01211   0.0000000000
C          C       0.26118   0.60407   0.43337   0.0000000000
C          C       0.32900   0.51579   0.52794   0.0000000000
C          C       0.34287   0.17037   0.60486   0.0000000000
C          C       0.38743   0.54988   0.46426   0.0000000000
C          C       0.43545   0.46601   0.56518   0.0000000000
C          C       0.56455   0.53398   0.43482   0.0000000000
C          C       0.61257   0.45012   0.53574   0.0000000000
C          C       0.65713   0.82963   0.39514   0.0000000000
C          C       0.67100   0.48421   0.47206   0.0000000000
C          C       0.73882   0.39592   0.56663   0.0000000000
C          C       0.80100   0.47195   0.98788   0.0000000000
C          C       0.81319   0.01224   0.48430   0.0000000000
C          C       0.82746   0.56623   0.17014   0.0000000000
C          C       0.83756   0.91453   0.44967   0.0000000000
C          C       0.87037   0.43489   0.90115   0.0000000000
C          C       0.92301   0.53555   0.08534   0.0000000000
C          C       0.96940   0.09910   0.53453   0.0000000000
H          H       0.19405   0.52891   0.54973   0.0000000000
H          H       0.33489   0.97901   0.52876   0.0000000000
H          H       0.35578   0.54992   0.02074   0.0000000000
H          H       0.64421   0.45007   0.97925   0.0000000000
H          H       0.66511   0.02099   0.47124   0.0000000000
H          H       0.80595   0.47108   0.45027   0.0000000000
O          O       0.06542   0.37369   0.73907   0.0000000000
O          O       0.07068   0.81012   0.43488   0.0000000000
O          O       0.11032   0.61904   0.46632   0.0000000000
O          O       0.26048   0.62573   0.18937   0.0000000000
O          O       0.30826   0.63504   0.37325   0.0000000000
O          O       0.32674   0.26135   0.63587   0.0000000000
O          O       0.36522   0.43589   0.62587   0.0000000000
O          O       0.35638   0.46679   0.84775   0.0000000000
O          O       0.49134   0.84769   0.38004   0.0000000000
O          O       0.50866   0.15230   0.61996   0.0000000000
O          O       0.64361   0.53320   0.15224   0.0000000000
O          O       0.63478   0.56411   0.37413   0.0000000000
O          O       0.67326   0.73864   0.36413   0.0000000000
O          O       0.69174   0.36495   0.62675   0.0000000000
O          O       0.73951   0.37426   0.81062   0.0000000000
O          O       0.88968   0.38096   0.53368   0.0000000000
O          O       0.92932   0.18988   0.56512   0.0000000000
O          O       0.93458   0.62630   0.26092   0.0000000000
Mn         Mn      0.10531   0.32712   0.58991   0.0000000000
Mn         Mn      0.22178   0.73777   0.32630   0.0000000000
Mn         Mn      0.48399   0.58932   0.26193   0.0000000000
Mn         Mn      0.51600   0.41067   0.73806   0.0000000000
Mn         Mn      0.77822   0.26222   0.67370   0.0000000000
Mn         Mn      0.89469   0.67287   0.41009   0.0000000000
