data_crystal
 
_cell_length_a    6.83535
_cell_length_b    15.15680
_cell_length_c    15.15740
_cell_angle_alpha 117.74300
_cell_angle_beta  98.64950
_cell_angle_gamma 98.65480
 
_symmetry_space_group_name_Hall 'P 1'
_symmetry_space_group_name_H-M  'P 1'
 
loop_
_symmetry_equiv_pos_as_xyz
 'x,y,z' 
 
loop_
_atom_site_label
_atom_site_type_symbol
_atom_site_fract_x
_atom_site_fract_y
_atom_site_fract_z
_atom_site_charge
C          C       0.96577   0.53238   0.10099   0.0000000000
C          C       0.91898   0.08702   0.53758   0.0000000000
C          C       0.86480   0.89903   0.43125   0.0000000000
C          C       0.83198   0.45046   0.91299   0.0000000000
C          C       0.81836   0.17358   0.57025   0.0000000000
C          C       0.80413   0.48257   0.01208   0.0000000000
C          C       0.79208   0.98794   0.47046   0.0000000000
C          C       0.75168   0.57013   0.39644   0.0000000000
C          C       0.67827   0.47038   0.48244   0.0000000000
C          C       0.64479   0.39649   0.82643   0.0000000000
C          C       0.61842   0.53747   0.45039   0.0000000000
C          C       0.56653   0.43130   0.53234   0.0000000000
C          C       0.43347   0.56871   0.46767   0.0000000000
C          C       0.38158   0.46253   0.54961   0.0000000000
C          C       0.35522   0.60352   0.17357   0.0000000000
C          C       0.32173   0.52962   0.51756   0.0000000000
C          C       0.24832   0.42988   0.60356   0.0000000000
C          C       0.20792   0.01207   0.52954   0.0000000000
C          C       0.19588   0.51744   0.98793   0.0000000000
C          C       0.18165   0.82643   0.42975   0.0000000000
C          C       0.16803   0.54955   0.08701   0.0000000000
C          C       0.13520   0.10098   0.56875   0.0000000000
C          C       0.08102   0.91299   0.46242   0.0000000000
C          C       0.03424   0.46763   0.89901   0.0000000000
H          H       0.81876   0.44738   0.46790   0.0000000000
H          H       0.64908   0.46815   0.02057   0.0000000000
H          H       0.62855   0.97947   0.44753   0.0000000000
H          H       0.37145   0.02054   0.55247   0.0000000000
H          H       0.35093   0.53186   0.97944   0.0000000000
H          H       0.18124   0.55262   0.53210   0.0000000000
O          O       0.93135   0.26560   0.63410   0.0000000000
O          O       0.92030   0.56013   0.19281   0.0000000000
O          O       0.90868   0.53647   0.37849   0.0000000000
O          O       0.72751   0.80725   0.36708   0.0000000000
O          O       0.70263   0.63403   0.36829   0.0000000000
O          O       0.66575   0.36827   0.73440   0.0000000000
O          O       0.63972   0.36717   0.56006   0.0000000000
O          O       0.62767   0.15790   0.53664   0.0000000000
O          O       0.53020   0.62147   0.15787   0.0000000000
O          O       0.46981   0.37854   0.84213   0.0000000000
O          O       0.37233   0.84211   0.46336   0.0000000000
O          O       0.36028   0.63283   0.43994   0.0000000000
O          O       0.33426   0.63174   0.26560   0.0000000000
O          O       0.29737   0.36597   0.63171   0.0000000000
O          O       0.27250   0.19276   0.63292   0.0000000000
O          O       0.09132   0.46354   0.62151   0.0000000000
O          O       0.07971   0.43988   0.80719   0.0000000000
O          O       0.06866   0.73441   0.36590   0.0000000000
Ni         Ni      0.88647   0.40670   0.67671   0.0000000000
Ni         Ni      0.79024   0.67676   0.26985   0.0000000000
Ni         Ni      0.52031   0.73011   0.40665   0.0000000000
Ni         Ni      0.47969   0.26990   0.59335   0.0000000000
Ni         Ni      0.20977   0.32325   0.73015   0.0000000000
Ni         Ni      0.11353   0.59331   0.32329   0.0000000000
