data_crystal
 
_cell_length_a    12.71824
_cell_length_b    15.24600
_cell_length_c    15.24750
_cell_angle_alpha 118.08300
_cell_angle_beta  97.99470
_cell_angle_gamma 97.99280
 
_symmetry_space_group_name_Hall 'P 1'
_symmetry_space_group_name_H-M  'P 1'
 
loop_
_symmetry_equiv_pos_as_xyz
 'x,y,z' 
 
loop_
_atom_site_label
_atom_site_type_symbol
_atom_site_fract_x
_atom_site_fract_y
_atom_site_fract_z
_atom_site_charge
C          C       0.01817   0.90056   0.47138   0.0000000000
C          C       0.04579   0.46704   0.91391   0.0000000000
C          C       0.06789   0.57086   0.09941   0.0000000000
C          C       0.08884   0.08609   0.55319   0.0000000000
C          C       0.10253   0.42803   0.82863   0.0000000000
C          C       0.10415   0.98861   0.52670   0.0000000000
C          C       0.10984   0.53807   0.01136   0.0000000000
C          C       0.11149   0.59943   0.42801   0.0000000000
C          C       0.15920   0.52669   0.53806   0.0000000000
C          C       0.18823   0.17139   0.59950   0.0000000000
C          C       0.18773   0.55314   0.46703   0.0000000000
C          C       0.21755   0.47142   0.57086   0.0000000000
C          C       0.28246   0.52857   0.42913   0.0000000000
C          C       0.31227   0.44685   0.53296   0.0000000000
C          C       0.31178   0.82861   0.40050   0.0000000000
C          C       0.34080   0.47330   0.46193   0.0000000000
C          C       0.38851   0.40057   0.57199   0.0000000000
C          C       0.39016   0.46193   0.98864   0.0000000000
C          C       0.39585   0.01139   0.47330   0.0000000000
C          C       0.39748   0.57197   0.17137   0.0000000000
C          C       0.41116   0.91391   0.44682   0.0000000000
C          C       0.43212   0.42914   0.90059   0.0000000000
C          C       0.45421   0.53296   0.08609   0.0000000000
C          C       0.48183   0.09944   0.52862   0.0000000000
H          H       0.08737   0.54679   0.56683   0.0000000000
H          H       0.18603   0.97992   0.54679   0.0000000000
H          H       0.19606   0.56686   0.02004   0.0000000000
H          H       0.30394   0.43314   0.97996   0.0000000000
H          H       0.31397   0.02008   0.45321   0.0000000000
H          H       0.41263   0.45321   0.43317   0.0000000000
O          O       0.06134   0.34074   0.74766   0.0000000000
O          O       0.04148   0.80881   0.44262   0.0000000000
O          O       0.04444   0.64043   0.48039   0.0000000000
O          O       0.13706   0.63388   0.19114   0.0000000000
O          O       0.10903   0.59314   0.34072   0.0000000000
O          O       0.18754   0.25240   0.59322   0.0000000000
O          O       0.17988   0.44269   0.63389   0.0000000000
O          O       0.19578   0.48042   0.84000   0.0000000000
O          O       0.22423   0.84001   0.35950   0.0000000000
O          O       0.27577   0.15999   0.64050   0.0000000000
O          O       0.30423   0.51959   0.16000   0.0000000000
O          O       0.32012   0.55731   0.36611   0.0000000000
O          O       0.31246   0.74760   0.40678   0.0000000000
O          O       0.39097   0.40686   0.65928   0.0000000000
O          O       0.36294   0.36612   0.80886   0.0000000000
O          O       0.45556   0.35958   0.51961   0.0000000000
O          O       0.45853   0.19119   0.55738   0.0000000000
O          O       0.43867   0.65926   0.25234   0.0000000000
Cu         Cu      0.06557   0.31034   0.57616   0.0000000000
Cu         Cu      0.08960   0.73423   0.31026   0.0000000000
Cu         Cu      0.22249   0.57612   0.26576   0.0000000000
Cu         Cu      0.27752   0.42388   0.73424   0.0000000000
Cu         Cu      0.41041   0.26577   0.68974   0.0000000000
Cu         Cu      0.43443   0.68966   0.42384   0.0000000000
C          C       0.51817   0.90056   0.47138   0.0000000000
C          C       0.54579   0.46704   0.91391   0.0000000000
C          C       0.56789   0.57086   0.09941   0.0000000000
C          C       0.58884   0.08609   0.55319   0.0000000000
C          C       0.60253   0.42803   0.82863   0.0000000000
C          C       0.60415   0.98861   0.52670   0.0000000000
C          C       0.60984   0.53807   0.01136   0.0000000000
C          C       0.61149   0.59943   0.42801   0.0000000000
C          C       0.65920   0.52669   0.53806   0.0000000000
C          C       0.68822   0.17139   0.59950   0.0000000000
C          C       0.68773   0.55314   0.46703   0.0000000000
C          C       0.71755   0.47142   0.57086   0.0000000000
C          C       0.78246   0.52857   0.42913   0.0000000000
C          C       0.81227   0.44685   0.53296   0.0000000000
C          C       0.81177   0.82861   0.40050   0.0000000000
C          C       0.84080   0.47330   0.46193   0.0000000000
C          C       0.88851   0.40057   0.57199   0.0000000000
C          C       0.89017   0.46193   0.98864   0.0000000000
C          C       0.89585   0.01139   0.47330   0.0000000000
C          C       0.89748   0.57197   0.17137   0.0000000000
C          C       0.91116   0.91391   0.44682   0.0000000000
C          C       0.93212   0.42914   0.90059   0.0000000000
C          C       0.95421   0.53296   0.08609   0.0000000000
C          C       0.98183   0.09944   0.52862   0.0000000000
H          H       0.58737   0.54679   0.56683   0.0000000000
H          H       0.68603   0.97992   0.54679   0.0000000000
H          H       0.69606   0.56686   0.02004   0.0000000000
H          H       0.80394   0.43314   0.97996   0.0000000000
H          H       0.81397   0.02008   0.45321   0.0000000000
H          H       0.91263   0.45321   0.43317   0.0000000000
O          O       0.56134   0.34074   0.74766   0.0000000000
O          O       0.54148   0.80881   0.44262   0.0000000000
O          O       0.54444   0.64043   0.48039   0.0000000000
O          O       0.63706   0.63388   0.19114   0.0000000000
O          O       0.60903   0.59314   0.34072   0.0000000000
O          O       0.68754   0.25240   0.59322   0.0000000000
O          O       0.67988   0.44269   0.63389   0.0000000000
O          O       0.69578   0.48042   0.84000   0.0000000000
O          O       0.72423   0.84001   0.35950   0.0000000000
O          O       0.77578   0.15999   0.64050   0.0000000000
O          O       0.80423   0.51959   0.16000   0.0000000000
O          O       0.82013   0.55731   0.36611   0.0000000000
O          O       0.81246   0.74760   0.40678   0.0000000000
O          O       0.89097   0.40686   0.65928   0.0000000000
O          O       0.86294   0.36612   0.80886   0.0000000000
O          O       0.95557   0.35958   0.51961   0.0000000000
O          O       0.95853   0.19119   0.55738   0.0000000000
O          O       0.93867   0.65926   0.25234   0.0000000000
Cu         Cu      0.56557   0.31034   0.57616   0.0000000000
Cu         Cu      0.58959   0.73423   0.31026   0.0000000000
Cu         Cu      0.72249   0.57612   0.26576   0.0000000000
Cu         Cu      0.77752   0.42388   0.73424   0.0000000000
Cu         Cu      0.91041   0.26577   0.68974   0.0000000000
Cu         Cu      0.93443   0.68966   0.42384   0.0000000000
