data_crystal
 
_cell_length_a    25.80400
_cell_length_b    6.74700
_cell_length_c    26.23240
_cell_angle_alpha 90.00000
_cell_angle_beta  101.73700
_cell_angle_gamma 90.00000
 
_symmetry_space_group_name_Hall 'P 1'
_symmetry_space_group_name_H-M  'P 1'
 
loop_
_symmetry_equiv_pos_as_xyz
 'x,y,z' 
 
loop_
_atom_site_label
_atom_site_type_symbol
_atom_site_fract_x
_atom_site_fract_y
_atom_site_fract_z
_atom_site_charge
C          C       0.10241   0.50000   0.08179   0.0000000000
C          C       0.59121   0.50000   0.58902   0.0000000000
C          C       0.01314   0.50000   0.99784   0.0000000000
C          C       0.52435   0.50000   0.49061   0.0000000000
C          C       0.57931   0.50000   0.49503   0.0000000000
C          C       0.00293   0.50000   0.05214   0.0000000000
C          C       0.53625   0.50000   0.58460   0.0000000000
C          C       0.11262   0.50000   0.02749   0.0000000000
C          C       0.44426   0.50000   0.52985   0.0000000000
C          C       0.06129   0.50000   0.92581   0.0000000000
C          C       0.67129   0.50000   0.54978   0.0000000000
C          C       0.05427   0.50000   0.15382   0.0000000000
C          C       0.61319   0.50000   0.54430   0.0000000000
C          C       0.04781   0.50000   0.09474   0.0000000000
C          C       0.50236   0.50000   0.53533   0.0000000000
C          C       0.06774   0.50000   0.98489   0.0000000000
N          N       0.69280   0.50000   0.50914   0.0000000000
N          N       0.01003   0.50000   0.17933   0.0000000000
N          N       0.42275   0.50000   0.57049   0.0000000000
N          N       0.10552   0.50000   0.90030   0.0000000000
N          N       0.11363   0.50000   0.48185   0.0000000000
N          N       0.00192   0.50000   0.59778   0.0000000000
H          H       0.09032   0.50000   0.50604   0.0000000000
H          H       0.02523   0.50000   0.57359   0.0000000000
C          C       0.09634   0.50000   0.43013   0.0000000000
C          C       0.94910   0.50000   0.58291   0.0000000000
C          C       0.01922   0.50000   0.64950   0.0000000000
C          C       0.16646   0.50000   0.49672   0.0000000000
C          C       0.14167   0.50000   0.40916   0.0000000000
C          C       0.92998   0.50000   0.62879   0.0000000000
C          C       0.97388   0.50000   0.67048   0.0000000000
C          C       0.18557   0.50000   0.45084   0.0000000000
H          H       0.14302   0.50000   0.36823   0.0000000000
H          H       0.88884   0.50000   0.63191   0.0000000000
H          H       0.97253   0.50000   0.71140   0.0000000000
H          H       0.22671   0.50000   0.44772   0.0000000000
N          N       0.98818   0.50000   0.47373   0.0000000000
N          N       0.12738   0.50000   0.60591   0.0000000000
C          C       0.99224   0.50000   0.42073   0.0000000000
C          C       0.93502   0.50000   0.48010   0.0000000000
C          C       0.12332   0.50000   0.65890   0.0000000000
C          C       0.18053   0.50000   0.59953   0.0000000000
C          C       0.93668   0.50000   0.39223   0.0000000000
C          C       0.90387   0.50000   0.42628   0.0000000000
C          C       0.17887   0.50000   0.68740   0.0000000000
C          C       0.21168   0.50000   0.65335   0.0000000000
H          H       0.92369   0.50000   0.35033   0.0000000000
H          H       0.86113   0.50000   0.41527   0.0000000000
H          H       0.19186   0.50000   0.72930   0.0000000000
H          H       0.25443   0.50000   0.66436   0.0000000000
C          C       0.03811   0.50000   0.40057   0.0000000000
C          C       0.91677   0.50000   0.52648   0.0000000000
C          C       0.07744   0.50000   0.67906   0.0000000000
C          C       0.19879   0.50000   0.55315   0.0000000000
C          C       0.03086   0.50000   0.34339   0.0000000000
C          C       0.85889   0.50000   0.52186   0.0000000000
C          C       0.08469   0.50000   0.73624   0.0000000000
C          C       0.25666   0.50000   0.55777   0.0000000000
C          C       0.02733   0.32026   0.31609   0.0000000000
C          C       0.83128   0.67973   0.51976   0.0000000000
C          C       0.08822   0.32026   0.76354   0.0000000000
C          C       0.28427   0.67973   0.55987   0.0000000000
C          C       0.02733   0.67974   0.31609   0.0000000000
C          C       0.83128   0.32026   0.51976   0.0000000000
C          C       0.08822   0.67974   0.76354   0.0000000000
C          C       0.28427   0.32026   0.55987   0.0000000000
H          H       0.02972   0.18103   0.33697   0.0000000000
H          H       0.85238   0.81899   0.52127   0.0000000000
H          H       0.08583   0.18103   0.74266   0.0000000000
H          H       0.26318   0.81899   0.55836   0.0000000000
H          H       0.02972   0.81896   0.33697   0.0000000000
H          H       0.85238   0.18101   0.52127   0.0000000000
H          H       0.08583   0.81896   0.74266   0.0000000000
H          H       0.26318   0.18101   0.55836   0.0000000000
C          C       0.02024   0.32055   0.26176   0.0000000000
C          C       0.77634   0.67941   0.51552   0.0000000000
C          C       0.09532   0.32055   0.81787   0.0000000000
C          C       0.33922   0.67941   0.56411   0.0000000000
C          C       0.02024   0.67944   0.26176   0.0000000000
C          C       0.77634   0.32059   0.51552   0.0000000000
C          C       0.09532   0.67944   0.81787   0.0000000000
C          C       0.33922   0.32059   0.56411   0.0000000000
H          H       0.01694   0.18227   0.24052   0.0000000000
H          H       0.75484   0.81759   0.51367   0.0000000000
H          H       0.09862   0.18227   0.83911   0.0000000000
H          H       0.36072   0.81759   0.56596   0.0000000000
H          H       0.01694   0.81772   0.24052   0.0000000000
H          H       0.75484   0.18240   0.51367   0.0000000000
H          H       0.09862   0.81772   0.83911   0.0000000000
H          H       0.36072   0.18240   0.56596   0.0000000000
C          C       0.01691   0.50000   0.23459   0.0000000000
C          C       0.74887   0.50000   0.51362   0.0000000000
C          C       0.09865   0.50000   0.84504   0.0000000000
C          C       0.36669   0.50000   0.56601   0.0000000000
H          H       0.13825   0.50000   0.11356   0.0000000000
H          H       0.61658   0.50000   0.62738   0.0000000000
H          H       0.59553   0.50000   0.46005   0.0000000000
H          H       0.41946   0.50000   0.49111   0.0000000000
O          O       0.94721   0.50000   0.04763   0.0000000000
H          H       0.02149   0.50000   0.89970   0.0000000000
C          C       0.91046   0.50000   0.08021   0.0000000000
O          O       0.92240   0.50000   0.12703   0.0000000000
H          H       0.49897   0.50000   0.45225   0.0000000000
H          H       0.52003   0.50000   0.61958   0.0000000000
H          H       0.69609   0.50000   0.58853   0.0000000000
O          O       0.16834   0.50000   0.03200   0.0000000000
H          H       0.09406   0.50000   0.17993   0.0000000000
C          C       0.61742   0.50000   0.21409   0.0000000000
C          C       0.56336   0.50000   0.19159   0.0000000000
C          C       0.54713   0.49999   0.13773   0.0000000000
C          C       0.58474   0.49999   0.10684   0.0000000000
C          C       0.63863   0.49999   0.12786   0.0000000000
C          C       0.65528   0.50000   0.18253   0.0000000000
C          C       0.67459   0.49999   0.09017   0.0000000000
C          C       0.72723   0.50000   0.10405   0.0000000000
C          C       0.74597   0.50000   0.01153   0.0000000000
C          C       0.76297   0.50000   0.06637   0.0000000000
C          C       0.83720   0.50000   0.00152   0.0000000000
C          C       0.85408   0.50000   0.05586   0.0000000000
C          C       0.81684   0.50000   0.08757   0.0000000000
H          H       0.62993   0.50000   0.25597   0.0000000000
H          H       0.53404   0.50000   0.21569   0.0000000000
H          H       0.50552   0.49999   0.11956   0.0000000000
H          H       0.53329   0.50001  -0.00534   0.0000000000
H          H       0.82993   0.50000   0.12954   0.0000000000
C          C       0.52148   0.50000  -0.04598   0.0000000000
C          C       0.43122   0.50000  -0.03054   0.0000000000
C          C       0.36430   0.50000   0.05018   0.0000000000
C          C       0.34394   0.50000  -0.00426   0.0000000000
C          C       0.33026   0.50000   0.08503   0.0000000000
C          C       0.27600   0.50000   0.06652   0.0000000000
C          C       0.25483   0.50000   0.01279   0.0000000000
H          H       0.34599   0.50000   0.12657   0.0000000000
H          H       0.25050   0.50000   0.09471   0.0000000000
H          H       0.45016   0.50000   0.01009   0.0000000000
H          H       0.65625   0.49999   0.04922   0.0000000000
H          H       0.74574   0.50000   0.14494   0.0000000000
C          C       0.19685   0.50000  -0.00537   0.0000000000
C          C       0.28888   0.50000  -0.02256   0.0000000000
C          C       0.37821   0.50000  -0.04371   0.0000000000
C          C       0.46762   0.50000  -0.06772   0.0000000000
C          C       0.45169   0.50000  -0.12229   0.0000000000
C          C       0.49019   0.50000  -0.15325   0.0000000000
C          C       0.54414   0.50000  -0.13008   0.0000000000
C          C       0.55967   0.50000  -0.07619   0.0000000000
C          C       0.78325   0.50000  -0.02047   0.0000000000
O          O       0.17577   0.50000  -0.05119   0.0000000000
H          H       0.86559   0.50000  -0.02376   0.0000000000
H          H       0.77034   0.50000  -0.06242   0.0000000000
H          H       0.70468   0.50000  -0.00703   0.0000000000
H          H       0.60117   0.50001  -0.05745   0.0000000000
H          H       0.57394   0.50000  -0.15366   0.0000000000
H          H       0.47831   0.49999  -0.19516   0.0000000000
H          H       0.41041   0.49999  -0.14108   0.0000000000
H          H       0.35885   0.50000  -0.08437   0.0000000000
H          H       0.27267   0.50000  -0.06393   0.0000000000
H          H       0.40599   0.50000   0.06689   0.0000000000
H          H       0.57248   0.49999   0.06627   0.0000000000
H          H       0.69659   0.50000   0.20114   0.0000000000
H          H      -0.01781   0.50000   0.96186   0.0000000000
