data_crystal
 
_cell_length_a    29.21400
_cell_length_b    29.21400
_cell_length_c    3.60000
_cell_angle_alpha 90.00000
_cell_angle_beta  90.00000
_cell_angle_gamma 120.00000
 
_symmetry_space_group_name_Hall 'P 1'
_symmetry_space_group_name_H-M  'P 1'
 
loop_
_symmetry_equiv_pos_as_xyz
 'x,y,z' 
 
loop_
_atom_site_label
_atom_site_type_symbol
_atom_site_fract_x
_atom_site_fract_y
_atom_site_fract_z
_atom_site_charge
N          N       0.42396   0.61508   0.50000   0.0000000000
N          N       0.38499   0.80921   0.50000   0.0000000000
N          N       0.19079   0.57583   0.50000   0.0000000000
N          N       0.57580   0.38502   0.50000   0.0000000000
N          N       0.61517   0.19128   0.50000   0.0000000000
N          N       0.80921   0.42417   0.50000   0.0000000000
C          C       0.37129   0.59877   0.50000   0.0000000000
C          C       0.44426   0.58185   0.50000   0.0000000000
C          C       0.41232   0.52737   0.50000   0.0000000000
C          C       0.43458   0.49614   0.50000   0.0000000000
C          C       0.48904   0.51738   0.50000   0.0000000000
C          C       0.52049   0.57227   0.50000   0.0000000000
C          C       0.49854   0.60410   0.50000   0.0000000000
H          H       0.35682   0.38782   0.24105   0.0000000000
H          H       0.35682   0.38782   0.75895   0.0000000000
N          N       0.35133   0.48539   0.50000   0.0000000000
C          C       0.31993   0.42890   0.50000   0.0000000000
H          H       0.32188   0.49231   0.50000   0.0000000000
C          C       0.33537   0.38632   0.50000   0.0000000000
O          O       0.27153   0.40955   0.50000   0.0000000000
H          H       0.29950   0.34635   0.50000   0.0000000000
C          C       0.40146   0.77335   0.50000   0.0000000000
C          C       0.41815   0.86240   0.50000   0.0000000000
C          C       0.47263   0.88495   0.50000   0.0000000000
C          C       0.50386   0.93843   0.50000   0.0000000000
C          C       0.48262   0.97167   0.50000   0.0000000000
C          C       0.42773   0.94822   0.50000   0.0000000000
C          C       0.39590   0.89444   0.50000   0.0000000000
H          H       0.61702   0.96758   0.24208   0.0000000000
H          H       0.61702   0.96758   0.75793   0.0000000000
N          N       0.51501   0.86599   0.49999   0.0000000000
C          C       0.57164   0.88920   0.50000   0.0000000000
H          H       0.50739   0.82963   0.49996   0.0000000000
C          C       0.61692   0.94654   0.50001   0.0000000000
O          O       0.58902   0.85842   0.49999   0.0000000000
H          H       0.65575   0.94807   0.50001   0.0000000000
C          C       0.22667   0.62823   0.50000   0.0000000000
C          C       0.13760   0.55574   0.50000   0.0000000000
C          C       0.11505   0.58768   0.50000   0.0000000000
C          C       0.06157   0.56543   0.50000   0.0000000000
C          C       0.02833   0.51096   0.50000   0.0000000000
C          C       0.05178   0.47951   0.50000   0.0000000000
C          C       0.10556   0.50146   0.50000   0.0000000000
H          H       0.03241   0.64944   0.24208   0.0000000000
H          H       0.03241   0.64944   0.75793   0.0000000000
N          N       0.13401   0.64902   0.50000   0.0000000000
C          C       0.11080   0.68244   0.50000   0.0000000000
H          H       0.17037   0.67776   0.50000   0.0000000000
C          C       0.05345   0.67037   0.50000   0.0000000000
O          O       0.14158   0.73060   0.50000   0.0000000000
H          H       0.05192   0.70768   0.50000   0.0000000000
C          C       0.62817   0.40151   0.50000   0.0000000000
C          C       0.55574   0.41815   0.50000   0.0000000000
C          C       0.58768   0.47263   0.50000   0.0000000000
C          C       0.56543   0.50386   0.50000   0.0000000000
C          C       0.51096   0.48262   0.50000   0.0000000000
C          C       0.47951   0.42773   0.50000   0.0000000000
C          C       0.50146   0.39590   0.50000   0.0000000000
H          H       0.64395   0.61222   0.24058   0.0000000000
H          H       0.64395   0.61222   0.75943   0.0000000000
N          N       0.64887   0.51458   0.50000   0.0000000000
C          C       0.68052   0.57106   0.50000   0.0000000000
H          H       0.67831   0.50766   0.50000   0.0000000000
C          C       0.66529   0.61374   0.50000   0.0000000000
O          O       0.72891   0.59025   0.50000   0.0000000000
H          H       0.70123   0.65365   0.50000   0.0000000000
C          C       0.59893   0.22781   0.50000   0.0000000000
C          C       0.58185   0.13760   0.50000   0.0000000000
C          C       0.52737   0.11505   0.50000   0.0000000000
C          C       0.49614   0.06157   0.50000   0.0000000000
C          C       0.51738   0.02833   0.50000   0.0000000000
C          C       0.57227   0.05178   0.50000   0.0000000000
C          C       0.60410   0.10556   0.50000   0.0000000000
H          H       0.38298   0.03242   0.24208   0.0000000000
H          H       0.38298   0.03242   0.75793   0.0000000000
N          N       0.48500   0.13402   0.50000   0.0000000000
C          C       0.42837   0.11081   0.50000   0.0000000000
H          H       0.49262   0.17037   0.50000   0.0000000000
C          C       0.38309   0.05347   0.50000   0.0000000000
O          O       0.41099   0.14159   0.50000   0.0000000000
H          H       0.34425   0.05194   0.50000   0.0000000000
C          C       0.77333   0.37175   0.50000   0.0000000000
C          C       0.86240   0.44426   0.50000   0.0000000000
C          C       0.88495   0.41232   0.50000   0.0000000000
C          C       0.93843   0.43458   0.50000   0.0000000000
C          C       0.97167   0.48904   0.50000   0.0000000000
C          C       0.94822   0.52049   0.50000   0.0000000000
C          C       0.89444   0.49854   0.50000   0.0000000000
H          H       0.97039   0.35897   0.24141   0.0000000000
H          H       0.97039   0.35897   0.75859   0.0000000000
N          N       0.86635   0.35173   0.50000   0.0000000000
C          C       0.89213   0.32108   0.50000   0.0000000000
H          H       0.82995   0.32215   0.50000   0.0000000000
C          C       0.95041   0.33739   0.50000   0.0000000000
O          O       0.86361   0.27263   0.50000   0.0000000000
H          H       0.95501   0.30181   0.50000   0.0000000000
H          H       0.52422   0.64663   0.50000   0.0000000000
H          H       0.41380   0.45780   0.50000   0.0000000000
H          H       0.56539   0.59145   0.50000   0.0000000000
H          H       0.35108   0.87607   0.50000   0.0000000000
H          H       0.54871   0.95710   0.50000   0.0000000000
H          H       0.40855   0.97394   0.50000   0.0000000000
H          H       0.12241   0.47577   0.50000   0.0000000000
H          H       0.04290   0.59161   0.50000   0.0000000000
H          H       0.02606   0.43461   0.50000   0.0000000000
H          H       0.47501   0.35108   0.50000   0.0000000000
H          H       0.58727   0.54140   0.50000   0.0000000000
H          H       0.43746   0.40618   0.50000   0.0000000000
H          H       0.64892   0.12393   0.50000   0.0000000000
H          H       0.45129   0.04291   0.50000   0.0000000000
H          H       0.59145   0.02606   0.50000   0.0000000000
H          H       0.87607   0.52499   0.50000   0.0000000000
H          H       0.96085   0.41736   0.50000   0.0000000000
H          H       0.97394   0.56539   0.50000   0.0000000000
C          C       0.61178   0.31203   0.50000   0.0000000000
C          C       0.64489   0.36773   0.50000   0.0000000000
C          C       0.68807   0.30134   0.50000   0.0000000000
C          C       0.63286   0.27958   0.50000   0.0000000000
C          C       0.70025   0.38822   0.50000   0.0000000000
C          C       0.72284   0.35511   0.50000   0.0000000000
C          C       0.38822   0.68797   0.50000   0.0000000000
C          C       0.35391   0.63277   0.50000   0.0000000000
C          C       0.31224   0.69949   0.50000   0.0000000000
C          C       0.36772   0.72284   0.50000   0.0000000000
C          C       0.29975   0.61178   0.50000   0.0000000000
C          C       0.27716   0.64489   0.50000   0.0000000000
O          O       0.56641   0.29365   0.50000   0.0000000000
O          O       0.70635   0.27276   0.50000   0.0000000000
O          O       0.72724   0.43359   0.50000   0.0000000000
O          O       0.43359   0.70635   0.50000   0.0000000000
O          O       0.29365   0.72724   0.50000   0.0000000000
O          O       0.27276   0.56641   0.50000   0.0000000000
H          H       0.55158   0.34697   0.50000   0.0000000000
H          H       0.65529   0.44150   0.50000   0.0000000000
H          H       0.78622   0.34471   0.50000   0.0000000000
H          H       0.79539   0.44842   0.50000   0.0000000000
H          H       0.65303   0.20461   0.50000   0.0000000000
H          H       0.55850   0.21378   0.50000   0.0000000000
H          H       0.44150   0.78621   0.50000   0.0000000000
H          H       0.34697   0.79539   0.50000   0.0000000000
H          H       0.21378   0.65529   0.50000   0.0000000000
H          H       0.20461   0.55158   0.50000   0.0000000000
H          H       0.34471   0.55850   0.50000   0.0000000000
H          H       0.44842   0.65303   0.50000   0.0000000000
