data_C288H144N32O64_2018-02-15_12:40:16
#******************************************
#
# CIF file created by Zeo++
# Zeo++ is an open source package to
# analyze microporous materials
#
#*******************************************

_cell_length_a		33.9183   
_cell_length_b		33.9183   
_cell_length_c		35.0093   
_cell_angle_alpha		90   
_cell_angle_beta		90   
_cell_angle_gamma		90   

_symmetry_space_group_name_H-M		'P1'
_symmetry_Int_Tables_number		1
_symmetry_cell_setting		Tetragonal

loop_
_symmetry_equiv_pos_as_xyz
'+x,+y,+z'

loop_
_atom_site_label
_atom_site_type_symbol
_atom_site_fract_x
_atom_site_fract_y
_atom_site_fract_z
1	C	0.071901	0.155629	0.1308
2	C	0.049643	0.133202	0.104536
3	C	0.052416	0.091732	0.103495
4	C	0.078228	0.072579	0.128994
5	C	0.101348	0.094312	0.155165
6	C	0.097354	0.135776	0.156316
7	H	0.031444	0.147306	0.085554
8	H	0.115134	0.151847	0.174149
9	H	0.08114	0.042526	0.127605
10	C	0.071762	0.197435	0.128657
11	C	0.080454	0.216251	0.093687
12	C	0.081945	0.257733	0.090551
13	C	0.073594	0.28041	0.123414
14	C	0.064602	0.262587	0.158897
15	C	0.064157	0.220943	0.161093
16	H	0.086632	0.199349	0.070165
17	H	0.074331	0.310534	0.121501
18	H	0.05778	0.207496	0.186563
19	C	0.568631	0.199684	0.614508
20	C	0.591271	0.218425	0.586047
21	C	0.597008	0.259721	0.586476
22	C	0.578879	0.282182	0.615665
23	C	0.555246	0.264148	0.643923
24	C	0.550703	0.222771	0.643129
25	H	0.605691	0.201516	0.566198
26	H	0.535018	0.209042	0.664352
27	H	0.582438	0.31218	0.616031
28	C	0.567139	0.15809	0.616819
29	C	0.547318	0.135528	0.588909
30	C	0.544308	0.094162	0.592648
31	C	0.562732	0.075582	0.624046
32	C	0.583461	0.097424	0.651875
33	C	0.585165	0.138799	0.647991
34	H	0.533479	0.149488	0.566678
35	H	0.561897	0.045442	0.626108
36	H	0.599664	0.155155	0.668225
37	C	0.079978	0.64862	0.639747
38	C	0.105429	0.622366	0.658819
39	C	0.100297	0.581188	0.655203
40	C	0.068844	0.566676	0.63276
41	C	0.042724	0.592597	0.613814
42	C	0.048742	0.633581	0.617536
43	H	0.128843	0.633292	0.674009
44	H	0.030653	0.652763	0.60318
45	H	0.065619	0.536837	0.629327
46	C	0.087036	0.689575	0.639759
47	C	0.069664	0.713514	0.668068
48	C	0.069315	0.754914	0.664046
49	C	0.087063	0.77202	0.631564
50	C	0.104185	0.748596	0.602651
51	C	0.10423	0.707252	0.607264
52	H	0.054474	0.700613	0.690094
53	H	0.086329	0.80206	0.628359
54	H	0.114556	0.689716	0.585602
55	C	0.582865	0.679415	0.119732
56	C	0.563993	0.699325	0.149969
57	C	0.567219	0.740612	0.153785
58	C	0.590324	0.761695	0.12717
59	C	0.61011	0.742245	0.097018
60	C	0.605794	0.700946	0.093414
61	H	0.546743	0.683722	0.168687
62	H	0.61986	0.686299	0.071734
63	H	0.592418	0.791738	0.129612
64	C	0.578449	0.638257	0.116077
65	C	0.601802	0.612749	0.138453
66	C	0.596073	0.571464	0.137496
67	C	0.565695	0.556419	0.114024
68	C	0.541593	0.5815	0.091832
69	C	0.548571	0.622484	0.092575
70	H	0.622572	0.624563	0.156378
71	H	0.56134	0.526545	0.112618
72	H	0.53087	0.641005	0.077044
73	C	0.818481	0.415947	0.358136
74	C	0.799739	0.394009	0.387277
75	C	0.759266	0.384807	0.385083
76	C	0.737605	0.397588	0.352983
77	C	0.755748	0.419033	0.323231
78	C	0.796411	0.42761	0.325836
79	H	0.8153	0.386243	0.411234
80	H	0.809247	0.445358	0.305656
81	H	0.707883	0.392178	0.351764
82	C	0.857823	0.429178	0.363018
83	C	0.86844	0.451063	0.395775
84	C	0.908041	0.461391	0.402904
85	C	0.937208	0.449781	0.376363
86	C	0.927337	0.428541	0.343037
87	C	0.887385	0.418694	0.336545
88	H	0.847245	0.458251	0.415461
89	H	0.966192	0.456435	0.38159
90	H	0.880076	0.401279	0.31368
91	C	0.843739	0.937515	0.866838
92	C	0.864917	0.956893	0.895988
93	C	0.906516	0.957896	0.895659
94	C	0.926742	0.939148	0.86545
95	C	0.906151	0.919403	0.836055
96	C	0.864527	0.918976	0.836935
97	H	0.849863	0.969261	0.918382
98	H	0.849267	0.903719	0.816429
99	H	0.956964	0.938709	0.86561
100	C	0.802375	0.933649	0.869509
101	C	0.785605	0.911546	0.89951
102	C	0.744339	0.907548	0.903014
103	C	0.719874	0.926792	0.876176
104	C	0.736039	0.948756	0.845672
105	C	0.777459	0.951646	0.842428
106	H	0.803725	0.898182	0.919056
107	H	0.689881	0.92369	0.878095
108	H	0.789627	0.968227	0.820968
109	C	0.299632	0.38606	0.86653
110	C	0.289042	0.400972	0.830219
111	C	0.249232	0.404575	0.818951
112	C	0.219647	0.392484	0.844893
113	C	0.229154	0.377772	0.881452
114	C	0.269305	0.374798	0.8919
115	H	0.310652	0.410878	0.812153
116	H	0.276639	0.363874	0.918253
117	H	0.190567	0.396671	0.838043
118	C	0.339881	0.385653	0.878012
119	C	0.36904	0.370396	0.853339
120	C	0.409575	0.375611	0.860894
121	C	0.421041	0.395415	0.894499
122	C	0.392531	0.410958	0.91987
123	C	0.35212	0.40576	0.911332
124	H	0.360608	0.356887	0.828437
125	H	0.450323	0.401482	0.898775
126	H	0.331393	0.418895	0.928419
127	C	0.345489	0.896522	0.376986
128	C	0.369128	0.874929	0.351307
129	C	0.410566	0.874142	0.355246
130	C	0.428046	0.89569	0.385363
131	C	0.404982	0.917929	0.411145
132	C	0.363588	0.91777	0.406832
133	H	0.356053	0.860709	0.328784
134	H	0.346515	0.934484	0.424779
135	H	0.458163	0.896377	0.387668
136	C	0.304464	0.899892	0.37101
137	C	0.289875	0.921349	0.339538
138	C	0.248947	0.92673	0.334243
139	C	0.222584	0.909524	0.360761
140	C	0.236653	0.888455	0.392744
141	C	0.277738	0.884036	0.397689
142	H	0.309334	0.93382	0.320663
143	H	0.192849	0.91399	0.357856
144	H	0.288364	0.868543	0.42064
145	C	0.927523	0.975479	0.926268
146	C	0.919288	0.014637	0.937539
147	C	0.940177	0.032172	0.967703
148	C	0.969409	0.010693	0.987443
149	C	0.977499	0.971464	0.976663
150	C	0.95679	0.954087	0.946263
151	H	0.998786	0.95552	0.990491
152	H	0.963035	0.925503	0.93909
153	C	0.991447	0.029145	0.016692
154	C	0.983201	0.020798	0.055628
155	C	0.004218	0.041267	0.084341
156	C	0.032472	0.070127	0.07484
157	C	0.040746	0.077521	0.036036
158	C	0.020709	0.057224	0.006691
159	H	0.997858	0.035818	0.112448
160	H	0.061765	0.097886	0.028791
161	H	0.898556	0.030994	0.923378
162	H	0.934083	0.060771	0.974975
163	N	0.029649	0.064407	0.96772
164	N	0.953577	0.992968	0.065118
165	O	0.925972	0.008595	0.083656
166	O	0.02347	0.099726	0.958711
167	O	0.064879	0.056002	0.960162
168	O	0.967324	0.964818	0.084264
169	C	0.739651	0.367188	0.416446
170	C	0.750088	0.329138	0.4294
171	C	0.728878	0.311183	0.459232
172	C	0.697502	0.331405	0.477065
173	C	0.687729	0.369818	0.464914
174	C	0.708588	0.387493	0.43483
175	H	0.664685	0.384727	0.477096
176	H	0.700578	0.415192	0.42617
177	C	0.673554	0.312471	0.50458
178	C	0.678934	0.320473	0.544007
179	C	0.653096	0.302951	0.57076
180	C	0.622151	0.27783	0.559109
181	C	0.61741	0.270246	0.519736
182	C	0.64255	0.28744	0.492206
183	H	0.657483	0.308291	0.599232
184	H	0.59485	0.252507	0.510644
185	H	0.77217	0.313665	0.416272
186	H	0.735936	0.28305	0.467304
187	N	0.63686	0.280457	0.452634
188	N	0.710047	0.345521	0.555964
189	O	0.733887	0.327714	0.577344
190	O	0.640038	0.244495	0.444613
191	O	0.603745	0.292494	0.44156
192	O	0.697225	0.375287	0.573342
193	C	0.238625	0.424871	0.784849
194	C	0.254206	0.462839	0.777531
195	C	0.237262	0.4873	0.749641
196	C	0.204328	0.47431	0.728452
197	C	0.190628	0.43537	0.733528
198	C	0.207793	0.410834	0.761263
199	H	0.165849	0.425797	0.719623
200	H	0.195299	0.383858	0.766291
201	C	0.180011	0.502059	0.709386
202	C	0.17572	0.501083	0.669074
203	C	0.149109	0.527529	0.651395
204	C	0.127055	0.554874	0.672998
205	C	0.131749	0.555511	0.712965
206	C	0.15755	0.529089	0.731563
207	H	0.146191	0.526969	0.622286
208	H	0.115304	0.574616	0.729092
209	H	0.275353	0.474661	0.794969
210	H	0.246672	0.515904	0.74753
211	N	0.160194	0.52867	0.772032
212	N	0.198261	0.474033	0.647259
213	O	0.220544	0.49151	0.62412
214	O	0.171724	0.561219	0.785023
215	O	0.127809	0.519967	0.787285
216	O	0.176581	0.450698	0.628941
217	C	0.434232	0.85471	0.327596
218	C	0.426731	0.815094	0.317327
219	C	0.44943	0.796384	0.289072
220	C	0.479871	0.817084	0.270275
221	C	0.48748	0.856626	0.280341
222	C	0.464955	0.875176	0.308787
223	H	0.509333	0.872208	0.266957
224	H	0.470587	0.904137	0.314948
225	C	0.502266	0.798531	0.241261
226	C	0.49659	0.809448	0.202485
227	C	0.518962	0.790408	0.17387
228	C	0.546342	0.760578	0.183052
229	C	0.551549	0.750088	0.221701
230	C	0.530021	0.768874	0.251072
231	H	0.514286	0.797802	0.145867
232	H	0.571591	0.728728	0.228827
233	H	0.404784	0.799459	0.330489
234	H	0.443298	0.767739	0.282025
235	N	0.536126	0.75882	0.289949
236	N	0.468072	0.838376	0.192832
237	O	0.441425	0.824416	0.171879
238	O	0.528399	0.723176	0.296224
239	O	0.570972	0.765598	0.300209
240	O	0.483441	0.867343	0.176134
241	C	0.118292	0.766297	0.568512
242	C	0.095016	0.79412	0.548477
243	C	0.110105	0.814145	0.516543
244	C	0.148818	0.806523	0.503972
245	C	0.171756	0.777863	0.52299
246	C	0.156522	0.75773	0.55479
247	H	0.200234	0.772553	0.514752
248	H	0.174398	0.738386	0.569063
249	C	0.166406	0.830401	0.475594
250	C	0.160776	0.821763	0.436318
251	C	0.182774	0.842946	0.4088
252	C	0.210416	0.871863	0.419828
253	C	0.214245	0.881244	0.458892
254	C	0.192518	0.860901	0.487053
255	H	0.180145	0.835425	0.380582
256	H	0.234057	0.902327	0.467299
257	H	0.067094	0.800756	0.557515
258	H	0.093294	0.835331	0.50356
259	N	0.197212	0.869926	0.526372
260	N	0.134582	0.791198	0.425416
261	O	0.107417	0.803991	0.404398
262	O	0.187548	0.904919	0.533513
263	O	0.232057	0.864498	0.537357
264	O	0.152238	0.76398	0.408089
265	C	0.619194	0.545832	0.160738
266	C	0.601159	0.515651	0.182537
267	C	0.623542	0.491655	0.207006
268	C	0.664629	0.497251	0.210376
269	C	0.682971	0.526775	0.188208
270	C	0.660534	0.550644	0.163633
271	H	0.712606	0.531934	0.190657
272	H	0.674707	0.571974	0.148178
273	C	0.6866	0.476174	0.238201
274	C	0.679306	0.483297	0.277574
275	C	0.702114	0.463316	0.30517
276	C	0.732301	0.43692	0.294545
277	C	0.739533	0.430446	0.255402
278	C	0.716825	0.449551	0.226981
279	H	0.697225	0.469192	0.333486
280	H	0.761353	0.411321	0.247307
281	H	0.571243	0.511789	0.181963
282	H	0.609453	0.470849	0.223208
283	N	0.723562	0.442171	0.187654
284	N	0.65036	0.511131	0.288983
285	O	0.623985	0.495497	0.309138
286	O	0.717913	0.406556	0.17943
287	O	0.757986	0.451479	0.177938
288	O	0.665293	0.539311	0.307256
289	C	0.537618	0.286372	0.673772
290	C	0.560494	0.311307	0.697415
291	C	0.543518	0.330226	0.729195
292	C	0.503194	0.324875	0.737593
293	C	0.480089	0.300652	0.713639
294	C	0.497124	0.281601	0.682139
295	H	0.450839	0.296044	0.719389
296	H	0.47975	0.263734	0.66564
297	C	0.485431	0.34224	0.770121
298	C	0.490308	0.32458	0.806637
299	C	0.4664	0.337358	0.837392
300	C	0.437416	0.366593	0.83203
301	C	0.434302	0.385099	0.796074
302	C	0.457776	0.373167	0.764882
303	H	0.468582	0.323395	0.863242
304	H	0.413479	0.406553	0.791855
305	H	0.590068	0.314653	0.69259
306	H	0.560818	0.347417	0.746407
307	N	0.453115	0.390821	0.728421
308	N	0.517432	0.293123	0.811279
309	O	0.543279	0.301212	0.835758
310	O	0.460445	0.42712	0.729435
311	O	0.418836	0.385995	0.715621
312	O	0.500441	0.26174	0.820908
313	C	0.918705	0.480339	0.437518
314	C	0.901375	0.516568	0.448381
315	C	0.914391	0.536524	0.481275
316	C	0.944378	0.520162	0.504332
317	C	0.960647	0.483285	0.494289
318	C	0.947878	0.46357	0.46132
319	H	0.983328	0.4714	0.509799
320	H	0.960915	0.437327	0.454291
321	C	0.963291	0.542622	0.533135
322	C	0.961649	0.530354	0.571891
323	C	0.987078	0.548217	0.598838
324	C	0.014031	0.577836	0.587947
325	C	0.014292	0.590513	0.549563
326	C	0.989637	0.57303	0.521861
327	H	0.986488	0.538686	0.626585
328	H	0.034534	0.611027	0.540799
329	H	0.880675	0.52972	0.431348
330	H	0.903085	0.563784	0.487379
331	N	0.992777	0.584006	0.482852
332	N	0.935268	0.499934	0.582785
333	O	0.910824	0.51183	0.607167
334	O	0.985076	0.619887	0.477962
335	O	0.026501	0.576936	0.469655
336	O	0.953258	0.47066	0.59621
337	C	0.72792	0.88398	0.932504
338	C	0.740671	0.844641	0.937802
339	C	0.723459	0.820678	0.965955
340	C	0.693437	0.835794	0.989666
341	C	0.680936	0.875168	0.984918
342	C	0.697942	0.898972	0.956514
343	H	0.658845	0.886518	0.001539
344	H	0.688221	0.927372	0.953515
345	C	0.674288	0.811105	0.016447
346	C	0.682065	0.815457	0.056044
347	C	0.661041	0.791876	0.082372
348	C	0.632602	0.76421	0.07015
349	C	0.625745	0.760009	0.030604
350	C	0.64607	0.783232	0.003507
351	H	0.666717	0.795111	0.110931
352	H	0.604597	0.740783	0.021167
353	H	0.761801	0.832692	0.92043
354	H	0.732587	0.792041	0.968665
355	N	0.637812	0.77978	0.963924
356	N	0.710596	0.843155	0.068578
357	O	0.738327	0.826669	0.086214
358	O	0.644917	0.745642	0.951816
359	O	0.602539	0.788188	0.956574
360	O	0.695592	0.868923	0.089875
361	C	0.234605	0.951224	0.304442
362	C	0.248654	0.990294	0.300377
363	C	0.231696	0.016038	0.273555
364	C	0.200637	0.002995	0.249938
365	C	0.187247	0.963722	0.253126
366	C	0.204023	0.93814	0.280137
367	H	0.164118	0.953913	0.2369
368	H	0.193041	0.910134	0.282535
369	C	0.179917	0.029635	0.226128
370	C	0.182548	0.025938	0.18584
371	C	0.157121	0.04864	0.162661
372	C	0.129165	0.074648	0.178711
373	C	0.128112	0.079155	0.218726
374	C	0.152873	0.056631	0.242772
375	H	0.158659	0.045436	0.133608
376	H	0.107546	0.097372	0.23087
377	H	0.270006	0.001004	0.318247
378	H	0.241233	0.044641	0.272268
379	N	0.149696	0.059447	0.283086
380	N	0.210063	0.999351	0.169489
381	O	0.234486	0.016975	0.148586
382	O	0.157033	0.093736	0.294653
383	O	0.116035	0.049568	0.294619
384	O	0.19322	0.973165	0.150043
385	C	0.094516	0.276017	0.055985
386	C	0.075333	0.309721	0.040955
387	C	0.090477	0.329459	0.008768
388	C	0.124963	0.315538	0.990768
389	C	0.143842	0.28159	0.005141
390	C	0.128787	0.262116	0.037291
391	H	0.169673	0.271752	0.993339
392	H	0.144427	0.238819	0.048057
393	C	0.144245	0.337228	0.96175
394	C	0.142805	0.323619	0.923455
395	C	0.169873	0.338985	0.896599
396	C	0.198915	0.366628	0.907402
397	C	0.198694	0.381092	0.945192
398	C	0.171853	0.36661	0.972667
399	H	0.169886	0.32777	0.869438
400	H	0.21938	0.401356	0.953487
401	H	0.050564	0.320685	0.053818
402	H	0.076915	0.35457	0.999273
403	N	0.173598	0.379494	0.011191
404	N	0.115416	0.293886	0.913123
405	O	0.09235	0.305623	0.887444
406	O	0.167472	0.415917	0.013896
407	O	0.206287	0.371631	0.026267
408	O	0.132469	0.263195	0.901675
409	C	0.602996	0.077927	0.682413
410	C	0.583508	0.048693	0.704216
411	C	0.603733	0.027492	0.73258
412	C	0.643989	0.03501	0.739558
413	C	0.663438	0.06464	0.718446
414	C	0.643104	0.085944	0.690265
415	H	0.692729	0.070338	0.722874
416	H	0.658361	0.106232	0.674452
417	C	0.665302	0.011913	0.766165
418	C	0.659479	0.017506	0.805946
419	C	0.682481	0.995471	0.831973
420	C	0.711265	0.968483	0.819199
421	C	0.716159	0.962878	0.779564
422	C	0.693422	0.984135	0.752769
423	H	0.679032	0.000401	0.860643
424	H	0.736608	0.943066	0.769821
425	H	0.554447	0.042291	0.69936
426	H	0.589183	0.005882	0.74735
427	N	0.698328	0.977956	0.712968
428	N	0.631795	0.045787	0.81902
429	O	0.605428	0.030147	0.839163
430	O	0.690474	0.943045	0.703684
431	O	0.732793	0.98589	0.702291
432	O	0.648137	0.072592	0.83808
433	C	0.423417	0.943128	0.438141
434	C	0.414437	0.983861	0.438663
435	C	0.43419	0.009559	0.463608
436	C	0.463272	0.994958	0.488667
437	C	0.472205	0.954311	0.488547
438	C	0.452644	0.928702	0.463317
439	H	0.49322	0.943166	0.506545
440	H	0.459793	0.899385	0.463603
441	C	0.482742	0.020787	0.514203
442	C	0.472701	0.020099	0.553539
443	C	0.492964	0.045289	0.578929
444	C	0.522724	0.071144	0.566032
445	C	0.531754	0.072016	0.526717
446	C	0.512266	0.046926	0.500541
447	H	0.485755	0.044569	0.607336
448	H	0.553801	0.090044	0.517008
449	H	0.394082	0.995395	0.420191
450	H	0.427247	0.038935	0.463303
451	N	0.52255	0.046749	0.461275
452	N	0.442643	0.994466	0.566852
453	O	0.41457	0.013279	0.581551
454	O	0.516972	0.07987	0.446147
455	O	0.557932	0.037001	0.456367
456	O	0.455642	0.970293	0.590963
457	C	0.927322	0.89677	0.808902
458	C	0.920102	0.855845	0.80556
459	C	0.943594	0.832297	0.781695
460	C	0.974636	0.849373	0.760641
461	C	0.981559	0.890295	0.763214
462	C	0.95825	0.913734	0.787385
463	H	0.003998	0.903135	0.748116
464	H	0.964273	0.943231	0.789425
465	C	0.998448	0.82564	0.736856
466	C	0.990622	0.824449	0.697092
467	C	0.014758	0.800898	0.673521
468	C	0.046144	0.77853	0.688711
469	C	0.053059	0.7795	0.728398
470	C	0.029687	0.803127	0.752797
471	H	0.008783	0.799748	0.644854
472	H	0.075787	0.763446	0.739749
473	H	0.898603	0.842545	0.821533
474	H	0.938216	0.802635	0.780181
475	N	0.037182	0.804914	0.792609
476	N	0.958698	0.846245	0.681622
477	O	0.93367	0.824018	0.666232
478	O	0.033802	0.771645	0.808045
479	O	0.07105	0.818136	0.799482
480	O	0.970261	0.870972	0.657362
481	C	0.053801	0.286283	0.190812
482	C	0.07538	0.320553	0.200739
483	C	0.061314	0.346757	0.228739
484	C	0.025456	0.338917	0.247597
485	C	0.004469	0.304148	0.238876
486	C	0.018549	0.278102	0.210888
487	H	0.977767	0.298529	0.251414
488	H	0.001346	0.254482	0.203579
489	C	0.007463	0.367309	0.271499
490	C	0.010483	0.363541	0.311729
491	C	0.98553	0.38649	0.335188
492	C	0.957144	0.412196	0.319372
493	C	0.955661	0.416684	0.279353
494	C	0.980462	0.394474	0.255089
495	H	0.986232	0.381977	0.364112
496	H	0.934893	0.434821	0.267423
497	H	0.10091	0.327466	0.186678
498	H	0.076487	0.372247	0.234109
499	N	0.977189	0.397405	0.214783
500	N	0.03688	0.335609	0.327673
501	O	0.061701	0.351887	0.349139
502	O	0.984592	0.431705	0.203303
503	O	0.94347	0.387661	0.203297
504	O	0.018919	0.309618	0.346425
505	C	0.404643	0.436711	0.949633
506	C	0.391671	0.476374	0.950102
507	C	0.408204	0.503781	0.975618
508	C	0.437764	0.491914	0.001516
509	C	0.449916	0.452083	0.001982
510	C	0.433615	0.424815	0.976246
511	H	0.472137	0.443044	0.019744
512	H	0.444194	0.39655	0.976086
513	C	0.458682	0.519905	0.023748
514	C	0.454796	0.519637	0.064112
515	C	0.481221	0.542235	0.086332
516	C	0.511193	0.564981	0.06919
517	C	0.513454	0.566544	0.029035
518	C	0.487825	0.543827	0.005992
519	H	0.479434	0.540717	0.115506
520	H	0.535861	0.581931	0.016283
521	H	0.371832	0.486271	0.930259
522	H	0.399734	0.532704	0.974095
523	N	0.492554	0.542863	0.965735
524	N	0.425422	0.495965	0.081574
525	O	0.401712	0.516523	0.100648
526	O	0.488141	0.576435	0.95119
527	O	0.525787	0.52969	0.956297
528	O	0.440249	0.470339	0.103147
