data_C272H192N48O16_2018-02-15_11:55:20
#******************************************
#
# CIF file created by Zeo++
# Zeo++ is an open source package to
# analyze microporous materials
#
#*******************************************

_cell_length_a		28.3887   
_cell_length_b		28.3887   
_cell_length_c		37.7571   
_cell_angle_alpha		90   
_cell_angle_beta		90   
_cell_angle_gamma		90   

_symmetry_space_group_name_H-M		'P1'
_symmetry_Int_Tables_number		1
_symmetry_cell_setting		Tetragonal

loop_
_symmetry_equiv_pos_as_xyz
'+x,+y,+z'

loop_
_atom_site_label
_atom_site_type_symbol
_atom_site_fract_x
_atom_site_fract_y
_atom_site_fract_z
1	C	0.063304	0.156203	0.124316
2	C	0.054344	0.131394	0.156431
3	C	0.048967	0.081657	0.155305
4	C	0.06412	0.057593	0.12473
5	C	0.07899	0.081456	0.093992
6	C	0.072704	0.131068	0.092415
7	C	0.051835	0.157573	0.188141
8	C	0.074475	0.156775	0.060455
9	H	0.064321	0.021468	0.124849
10	C	0.06267	0.206457	0.124085
11	C	0.065361	0.23178	0.156608
12	C	0.070826	0.281513	0.15573
13	C	0.060837	0.304877	0.123685
14	C	0.051868	0.28065	0.091846
15	C	0.059182	0.231147	0.091335
16	C	0.060471	0.206273	0.188461
17	H	0.060292	0.341008	0.123497
18	C	0.064591	0.205226	0.059721
19	H	0.057583	0.223205	0.212119
20	H	0.048049	0.141278	0.211939
21	H	0.066385	0.221783	0.035867
22	H	0.078333	0.140161	0.03679
23	N	0.108025	0.053783	0.071446
24	H	0.142298	0.060067	0.078904
25	N	0.025241	0.307603	0.067206
26	H	0.99044	0.303093	0.074056
27	N	0.097854	0.309529	0.179491
28	H	0.132285	0.306924	0.17116
29	N	0.019765	0.054016	0.177756
30	H	0.985523	0.060382	0.170254
31	C	0.563876	0.20815	0.623285
32	C	0.570132	0.233252	0.655636
33	C	0.576068	0.282951	0.654476
34	C	0.563971	0.306711	0.622991
35	C	0.551086	0.282625	0.591889
36	C	0.557338	0.233026	0.59088
37	C	0.568977	0.2074	0.687538
38	C	0.558546	0.207215	0.558971
39	H	0.56382	0.342835	0.622866
40	C	0.563908	0.157893	0.623306
41	C	0.558029	0.132864	0.655732
42	C	0.551836	0.083189	0.654659
43	C	0.563418	0.059357	0.623094
44	C	0.575927	0.083319	0.591849
45	C	0.569882	0.132951	0.590864
46	C	0.559871	0.158769	0.687596
47	H	0.563422	0.02323	0.623004
48	C	0.568142	0.158708	0.558936
49	H	0.559399	0.142234	0.711483
50	H	0.569759	0.223977	0.711401
51	H	0.568477	0.142057	0.535081
52	H	0.557373	0.223828	0.535118
53	N	0.522025	0.309616	0.568897
54	H	0.487733	0.302913	0.576125
55	N	0.604544	0.056061	0.568699
56	H	0.638832	0.060987	0.576711
57	N	0.524656	0.055243	0.678345
58	H	0.490111	0.058804	0.670537
59	N	0.603381	0.310968	0.678
60	H	0.637976	0.306493	0.6706
61	C	0.064351	0.659097	0.625157
62	C	0.072845	0.634446	0.592917
63	C	0.079531	0.584863	0.594077
64	C	0.065356	0.560533	0.624794
65	C	0.050777	0.584152	0.655716
66	C	0.05645	0.63383	0.657223
67	C	0.073622	0.660619	0.561151
68	C	0.055702	0.659453	0.689243
69	H	0.065679	0.524417	0.624649
70	C	0.063882	0.709332	0.625348
71	C	0.059357	0.734592	0.592904
72	C	0.052331	0.784161	0.594111
73	C	0.062731	0.807818	0.625978
74	C	0.074219	0.783668	0.657366
75	C	0.06824	0.734025	0.658023
76	C	0.063567	0.709064	0.560992
77	H	0.062638	0.843942	0.626195
78	C	0.06502	0.708029	0.68977
79	H	0.064728	0.72593	0.537245
80	H	0.076622	0.644302	0.53729
81	H	0.063987	0.724563	0.713676
82	H	0.05346	0.642731	0.712995
83	N	0.02184	0.556306	0.678228
84	H	0.987591	0.562002	0.670439
85	N	0.102829	0.81051	0.680792
86	H	0.137148	0.805342	0.672928
87	N	0.025863	0.812042	0.56993
88	H	0.991194	0.809055	0.577574
89	N	0.108644	0.557807	0.571183
90	H	0.142922	0.564602	0.578371
91	C	0.564264	0.711093	0.124321
92	C	0.556623	0.7363	0.092197
93	C	0.55042	0.785919	0.093619
94	C	0.563968	0.809678	0.124747
95	C	0.577677	0.785524	0.155671
96	C	0.571855	0.735839	0.156644
97	C	0.55682	0.71072	0.060157
98	C	0.572404	0.709695	0.188419
99	H	0.563866	0.845798	0.124898
100	C	0.564447	0.660848	0.124111
101	C	0.569505	0.636204	0.091471
102	C	0.57592	0.58661	0.092069
103	C	0.564535	0.562375	0.123455
104	C	0.553759	0.585839	0.155341
105	C	0.559832	0.635514	0.156511
106	C	0.56637	0.6622	0.059715
107	H	0.564817	0.526248	0.123222
108	C	0.563256	0.661077	0.18846
109	H	0.566173	0.645712	0.035783
110	H	0.554714	0.727459	0.036401
111	H	0.564154	0.644267	0.212239
112	H	0.574634	0.726036	0.212326
113	N	0.606766	0.812792	0.17845
114	H	0.641051	0.806233	0.171151
115	N	0.526875	0.557659	0.179077
116	H	0.492344	0.560459	0.171052
117	N	0.604896	0.559941	0.068805
118	H	0.639135	0.565345	0.076769
119	N	0.521299	0.813377	0.070971
120	H	0.487039	0.807005	0.078437
121	C	0.789413	0.437516	0.377121
122	C	0.764488	0.440204	0.344423
123	C	0.714609	0.444279	0.344696
124	C	0.690152	0.438509	0.376801
125	C	0.714126	0.43238	0.409068
126	C	0.764051	0.435515	0.409653
127	C	0.790375	0.439066	0.312516
128	C	0.78954	0.435998	0.44174
129	H	0.654053	0.438763	0.376682
130	C	0.839701	0.436681	0.377307
131	C	0.865	0.4338	0.344786
132	C	0.914812	0.429051	0.345421
133	C	0.938941	0.434497	0.377699
134	C	0.91465	0.440915	0.409801
135	C	0.864683	0.438435	0.410019
136	C	0.839528	0.435121	0.312696
137	H	0.975029	0.433486	0.37786
138	C	0.838778	0.438079	0.44192
139	H	0.856387	0.434772	0.288794
140	H	0.773829	0.439372	0.288494
141	H	0.855299	0.437586	0.465942
142	H	0.772702	0.436343	0.465643
143	N	0.685604	0.420939	0.438662
144	H	0.68944	0.445523	0.458396
145	N	0.943013	0.451289	0.439698
146	H	0.938476	0.426438	0.459156
147	N	0.942981	0.41625	0.315946
148	H	0.939617	0.440447	0.295897
149	N	0.686524	0.455907	0.314916
150	H	0.690546	0.431369	0.295171
151	C	0.838961	0.934929	0.876342
152	C	0.863999	0.932308	0.843688
153	C	0.913875	0.928278	0.844027
154	C	0.938244	0.93364	0.87621
155	C	0.914199	0.93966	0.908463
156	C	0.864239	0.936951	0.908921
157	C	0.838218	0.933259	0.811734
158	C	0.838609	0.936644	0.940947
159	H	0.974342	0.933076	0.876164
160	C	0.788659	0.93545	0.876411
161	C	0.76342	0.937736	0.843824
162	C	0.713531	0.941608	0.844295
163	C	0.68938	0.936274	0.876575
164	C	0.713636	0.930628	0.908773
165	C	0.763579	0.933671	0.909078
166	C	0.789029	0.936549	0.811798
167	H	0.653278	0.936574	0.876639
168	C	0.789367	0.934432	0.941027
169	H	0.772287	0.93651	0.787855
170	H	0.85483	0.933146	0.787744
171	H	0.772759	0.934999	0.965014
172	H	0.85533	0.936433	0.964892
173	N	0.94283	0.94985	0.938259
174	H	0.938325	0.924985	0.957709
175	N	0.685287	0.920134	0.938659
176	H	0.689486	0.945162	0.958033
177	N	0.685143	0.952697	0.814542
178	H	0.68907	0.927845	0.795009
179	N	0.94202	0.916883	0.814226
180	H	0.938184	0.94166	0.79463
181	C	0.289393	0.437593	0.873736
182	C	0.264508	0.435307	0.906466
183	C	0.214665	0.430982	0.906257
184	C	0.190138	0.436336	0.874144
185	C	0.214041	0.442296	0.841824
186	C	0.263986	0.43933	0.841212
187	C	0.290405	0.436625	0.938357
188	C	0.289466	0.438379	0.80912
189	H	0.154043	0.435656	0.874276
190	C	0.339685	0.437858	0.87354
191	C	0.365057	0.440499	0.906042
192	C	0.414961	0.444047	0.905404
193	C	0.438953	0.437822	0.873153
194	C	0.414507	0.431559	0.841098
195	C	0.364607	0.435198	0.840839
196	C	0.33959	0.439897	0.938145
197	H	0.475052	0.43765	0.873029
198	C	0.338686	0.435554	0.808943
199	H	0.356438	0.44007	0.962042
200	H	0.273866	0.436794	0.962379
201	H	0.355219	0.43536	0.784915
202	H	0.272613	0.437879	0.785225
203	N	0.185321	0.452642	0.812116
204	H	0.189577	0.42773	0.792665
205	N	0.442574	0.41935	0.811432
206	H	0.438537	0.443494	0.791415
207	N	0.443532	0.455308	0.934996
208	H	0.439548	0.430721	0.954711
209	N	0.18683	0.418748	0.936045
210	H	0.19025	0.443402	0.955771
211	C	0.33897	0.9357	0.37251
212	C	0.364385	0.938328	0.405005
213	C	0.414274	0.942139	0.404356
214	C	0.438252	0.936637	0.372023
215	C	0.41382	0.930741	0.339923
216	C	0.363867	0.933618	0.339775
217	C	0.338949	0.937423	0.437118
218	C	0.337892	0.933904	0.307908
219	H	0.474354	0.936905	0.371848
220	C	0.288668	0.935059	0.372749
221	C	0.263816	0.932671	0.405495
222	C	0.213957	0.928405	0.405333
223	C	0.189401	0.93352	0.373207
224	C	0.213247	0.939332	0.340847
225	C	0.263206	0.936658	0.340241
226	C	0.289767	0.934052	0.437359
227	H	0.153306	0.932854	0.373366
228	C	0.288648	0.935964	0.308133
229	H	0.273277	0.934066	0.461402
230	H	0.355818	0.937648	0.461008
231	H	0.271785	0.935376	0.284246
232	H	0.354356	0.934154	0.283859
233	N	0.442025	0.920007	0.310013
234	H	0.437629	0.944788	0.290489
235	N	0.184462	0.949417	0.311113
236	H	0.188765	0.924386	0.291755
237	N	0.186044	0.91683	0.435235
238	H	0.189789	0.941685	0.454784
239	N	0.442863	0.953052	0.434022
240	H	0.438911	0.928236	0.453576
241	C	0.062444	0.036101	0.013789
242	C	0.063851	0.030965	0.976548
243	C	0.023861	0.018574	0.957415
244	C	0.980021	0.010973	0.973934
245	C	0.978143	0.015914	0.011209
246	C	0.01876	0.027811	0.030834
247	H	0.01592	0.029639	0.057705
248	H	0.947244	0.01011	0.02446
249	N	0.036195	0.016208	0.923438
250	O	0.101949	0.036329	0.954931
251	C	0.08224	0.026775	0.922651
252	H	0.101183	0.027586	0.899665
253	C	0.107055	0.0478	0.032388
254	H	0.122527	0.079033	0.020156
255	H	0.131245	0.018741	0.026741
256	C	0.938078	0.998472	0.952587
257	H	0.935013	0.024154	0.931071
258	H	0.906143	0.001525	0.96856
259	C	0.567902	0.328497	0.511817
260	C	0.567099	0.333821	0.474589
261	C	0.606883	0.348268	0.456039
262	C	0.649932	0.357745	0.473175
263	C	0.651207	0.352591	0.510442
264	C	0.61075	0.338669	0.529477
265	H	0.613072	0.336743	0.556373
266	H	0.681511	0.359664	0.524114
267	N	0.595216	0.35036	0.421921
268	O	0.529778	0.326891	0.452466
269	C	0.54974	0.337656	0.420491
270	H	0.53137	0.336171	0.397263
271	C	0.523469	0.314702	0.5298
272	H	0.510031	0.282429	0.517747
273	H	0.497913	0.342317	0.523468
274	C	0.691776	0.372187	0.452456
275	H	0.696189	0.347058	0.430701
276	H	0.723471	0.369904	0.468768
277	C	0.06673	0.5395	0.736167
278	C	0.065187	0.535002	0.773447
279	C	0.104987	0.522402	0.792728
280	C	0.148759	0.514004	0.776316
281	C	0.150764	0.518319	0.739006
282	C	0.110333	0.530401	0.719238
283	H	0.113227	0.531719	0.69235
284	H	0.181608	0.511915	0.725838
285	N	0.092551	0.520697	0.826709
286	O	0.027104	0.541135	0.794964
287	C	0.04664	0.531856	0.82735
288	H	0.027651	0.533202	0.850296
289	C	0.022295	0.55122	0.717354
290	H	0.00701	0.582866	0.729114
291	H	0.997824	0.52249	0.723269
292	C	0.190508	0.501207	0.797769
293	H	0.193707	0.526897	0.819269
294	H	0.222532	0.503975	0.781862
295	C	0.560843	0.830828	0.235776
296	C	0.561822	0.835928	0.273024
297	C	0.521859	0.849282	0.291816
298	C	0.478458	0.857891	0.274923
299	C	0.47701	0.852998	0.237639
300	C	0.517622	0.840145	0.218362
301	H	0.515124	0.838369	0.191471
302	H	0.446445	0.859487	0.224132
303	N	0.533748	0.851392	0.325891
304	O	0.599464	0.829676	0.294957
305	C	0.579516	0.839743	0.327065
306	H	0.598101	0.838514	0.350205
307	C	0.605431	0.818094	0.217546
308	H	0.619779	0.786236	0.22963
309	H	0.630346	0.846358	0.223674
310	C	0.436501	0.871351	0.2959
311	H	0.432658	0.845883	0.317493
312	H	0.404725	0.868783	0.279699
313	C	0.151917	0.853833	0.470762
314	C	0.153417	0.852706	0.508125
315	C	0.113902	0.839891	0.527869
316	C	0.071172	0.826146	0.51165
317	C	0.069816	0.82721	0.474121
318	C	0.109241	0.841103	0.454024
319	H	0.106607	0.841779	0.426988
320	H	0.039489	0.818541	0.46096
321	N	0.125873	0.844886	0.561728
322	O	0.190327	0.865331	0.529146
323	C	0.170769	0.859483	0.561895
324	H	0.188768	0.866247	0.584751
325	C	0.19309	0.868332	0.44928
326	H	0.22528	0.866504	0.465055
327	H	0.1972	0.843012	0.427613
328	C	0.026924	0.814032	0.530677
329	H	0.001572	0.841328	0.523168
330	H	0.01291	0.780991	0.520271
331	C	0.651971	0.518654	0.279471
332	C	0.653782	0.518781	0.242112
333	C	0.614336	0.530736	0.221992
334	C	0.571365	0.544587	0.237796
335	C	0.56966	0.544428	0.275326
336	C	0.609028	0.531412	0.295815
337	H	0.606136	0.531321	0.32284
338	H	0.539134	0.553154	0.2882
339	N	0.626598	0.52479	0.188279
340	O	0.690937	0.505772	0.221476
341	C	0.671599	0.510517	0.188552
342	H	0.68981	0.503162	0.165895
343	C	0.693005	0.50468	0.301292
344	H	0.725448	0.507273	0.285862
345	H	0.696292	0.529774	0.323185
346	C	0.527214	0.555802	0.21834
347	H	0.502218	0.528101	0.225674
348	H	0.512444	0.588654	0.2285
349	C	0.477116	0.355554	0.776941
350	C	0.475249	0.353053	0.739634
351	C	0.514705	0.339983	0.719908
352	C	0.557796	0.327418	0.736127
353	C	0.559505	0.329874	0.773619
354	C	0.520112	0.343963	0.793677
355	H	0.523015	0.345635	0.820673
356	H	0.590056	0.322034	0.786783
357	N	0.502313	0.343768	0.686057
358	O	0.437974	0.364561	0.718615
359	C	0.45721	0.357709	0.685874
360	H	0.439013	0.363839	0.663007
361	C	0.435977	0.370317	0.798354
362	H	0.403657	0.367594	0.782797
363	H	0.432362	0.345686	0.820517
364	C	0.602039	0.315011	0.717177
365	H	0.627067	0.342982	0.723827
366	H	0.616524	0.28275	0.728544
367	C	0.062481	0.539662	0.513957
368	C	0.063306	0.534769	0.47669
369	C	0.023232	0.521641	0.457941
370	C	0.979883	0.513021	0.474907
371	C	0.978608	0.517636	0.512214
372	C	0.019326	0.530292	0.531442
373	H	0.016948	0.531892	0.558343
374	H	0.948086	0.51113	0.525769
375	N	0.034958	0.519795	0.423825
376	O	0.100855	0.541138	0.454688
377	C	0.080743	0.531367	0.422586
378	H	0.099215	0.532776	0.399403
379	C	0.10715	0.552287	0.53211
380	H	0.121586	0.584043	0.519927
381	H	0.131951	0.523909	0.526013
382	C	0.937793	0.499896	0.453971
383	H	0.933999	0.525505	0.432467
384	H	0.90609	0.502542	0.470248
385	C	0.56681	0.831289	0.013505
386	C	0.565845	0.83577	0.976212
387	C	0.605748	0.849095	0.957331
388	C	0.649058	0.8583	0.974181
389	C	0.650481	0.854027	0.011511
390	C	0.609926	0.841215	0.030872
391	H	0.612367	0.83994	0.057788
392	H	0.680965	0.861002	0.024986
393	N	0.593909	0.850522	0.923226
394	O	0.528288	0.828883	0.954306
395	C	0.548233	0.838514	0.922121
396	H	0.529708	0.836738	0.898976
397	C	0.522296	0.818636	0.031865
398	H	0.507822	0.786754	0.019893
399	H	0.497378	0.846915	0.025777
400	C	0.690969	0.871675	0.95312
401	H	0.694935	0.845964	0.931706
402	H	0.722735	0.86942	0.969355
403	C	0.06523	0.036224	0.23541
404	C	0.063928	0.031546	0.272685
405	C	0.103853	0.018895	0.291802
406	C	0.147508	0.010514	0.275217
407	C	0.149253	0.014902	0.237901
408	C	0.108705	0.027107	0.218304
409	H	0.111412	0.028484	0.19141
410	H	0.180009	0.008529	0.224609
411	N	0.091673	0.017191	0.32583
412	O	0.026019	0.03772	0.294369
413	C	0.045777	0.028379	0.326667
414	H	0.026973	0.029788	0.349699
415	C	0.020674	0.048158	0.216826
416	H	0.005394	0.079506	0.229015
417	H	0.996316	0.019265	0.222541
418	C	0.189432	0.997898	0.296543
419	H	0.192758	0.023734	0.317933
420	H	0.221314	0.000639	0.280477
421	C	0.153172	0.354423	0.970483
422	C	0.153923	0.352079	0.007824
423	C	0.114283	0.337799	0.026849
424	C	0.072152	0.323833	0.009858
425	C	0.071605	0.326022	0.97234
426	C	0.111145	0.34136	0.952987
427	H	0.1091	0.342773	0.925938
428	H	0.041783	0.317079	0.958642
429	N	0.125527	0.341821	0.060917
430	O	0.190183	0.364642	0.029496
431	C	0.170157	0.357156	0.06189
432	H	0.187498	0.363666	0.085074
433	C	0.194551	0.370172	0.949759
434	H	0.226366	0.368798	0.965986
435	H	0.199761	0.34525	0.927961
436	C	0.027774	0.309938	0.028007
437	H	0.001699	0.336365	0.020139
438	H	0.015371	0.276525	0.017138
439	C	0.650175	0.0148	0.778559
440	C	0.652115	0.015606	0.741202
441	C	0.612674	0.027684	0.72111
442	C	0.569519	0.040861	0.736951
443	C	0.567652	0.039894	0.774472
444	C	0.607048	0.026848	0.794924
445	H	0.604068	0.026328	0.821942
446	H	0.537024	0.048166	0.787378
447	N	0.625175	0.022617	0.687371
448	O	0.689528	0.003497	0.720517
449	C	0.670309	0.008772	0.687598
450	H	0.6887	0.002074	0.664906
451	C	0.691342	0.001254	0.800401
452	H	0.7237	0.003709	0.78487
453	H	0.694632	0.026725	0.822047
454	C	0.525357	0.05233	0.717577
455	H	0.500492	0.024342	0.724529
456	H	0.51045	0.084818	0.728264
457	C	0.560132	0.040674	0.510442
458	C	0.562058	0.036229	0.473172
459	C	0.522532	0.023373	0.453674
460	C	0.478617	0.014848	0.469833
461	C	0.476183	0.019301	0.507121
462	C	0.516368	0.031517	0.527125
463	H	0.513162	0.032985	0.553992
464	H	0.445223	0.012802	0.520109
465	N	0.535382	0.02149	0.419789
466	O	0.600377	0.042363	0.451894
467	C	0.581263	0.03279	0.419416
468	H	0.600517	0.034062	0.396591
469	C	0.604318	0.052655	0.529485
470	H	0.618898	0.085102	0.518472
471	H	0.629409	0.024691	0.522959
472	C	0.437192	0.001673	0.448155
473	H	0.434085	0.027183	0.426527
474	H	0.404968	0.004354	0.463839
475	C	0.058194	0.82628	0.738784
476	C	0.059843	0.830817	0.776053
477	C	0.020433	0.844699	0.795284
478	C	0.976896	0.854168	0.778842
479	C	0.97474	0.849627	0.741554
480	C	0.014834	0.83639	0.72182
481	H	0.011863	0.834878	0.694937
482	H	0.944063	0.856746	0.72837
483	N	0.03298	0.846461	0.829238
484	O	0.097794	0.823913	0.797565
485	C	0.078582	0.8341	0.829906
486	H	0.097574	0.832508	0.852844
487	C	0.102288	0.813247	0.720024
488	H	0.115755	0.780226	0.730865
489	H	0.128091	0.840377	0.726966
490	C	0.935542	0.868279	0.800245
491	H	0.93173	0.842949	0.821928
492	H	0.903427	0.866123	0.784388
493	C	0.975681	0.352042	0.280803
494	C	0.973127	0.35121	0.243473
495	C	0.011815	0.337746	0.223066
496	C	0.054741	0.323167	0.238571
497	C	0.057139	0.323856	0.276073
498	C	0.018547	0.338367	0.296835
499	H	0.021942	0.338831	0.323823
500	H	0.087653	0.314506	0.288714
501	N	0.999021	0.343262	0.18942
502	O	0.935915	0.364765	0.223093
503	C	0.954384	0.358625	0.190018
504	H	0.936007	0.366241	0.167485
505	C	0.93538	0.367351	0.302889
506	H	0.90262	0.365057	0.287816
507	H	0.931981	0.34277	0.325102
508	C	0.098191	0.310421	0.218768
509	H	0.12438	0.33694	0.226244
510	H	0.111692	0.276799	0.228473
511	C	0.560466	0.544453	0.010676
512	C	0.562164	0.540405	0.973375
513	C	0.522701	0.527069	0.953994
514	C	0.479082	0.517646	0.970319
515	C	0.476901	0.521567	0.007645
516	C	0.517037	0.534273	0.027519
517	H	0.514025	0.535372	0.054409
518	H	0.446167	0.514406	0.02074
519	N	0.535273	0.525808	0.920032
520	O	0.600165	0.547517	0.951952
521	C	0.580943	0.537936	0.91951
522	H	0.599961	0.539842	0.896598
523	C	0.60454	0.557194	0.029574
524	H	0.618225	0.590172	0.018806
525	H	0.630237	0.529944	0.022686
526	C	0.437664	0.504071	0.948795
527	H	0.434346	0.529327	0.927019
528	H	0.405496	0.506808	0.964537
