data_C208H144N64O32_2018-02-15_12:44:08
#******************************************
#
# CIF file created by Zeo++
# Zeo++ is an open source package to
# analyze microporous materials
#
#*******************************************

_cell_length_a		36.5566   
_cell_length_b		36.5566   
_cell_length_c		36.5566   
_cell_angle_alpha		90   
_cell_angle_beta		90   
_cell_angle_gamma		90   

_symmetry_space_group_name_H-M		'P1'
_symmetry_Int_Tables_number		1
_symmetry_cell_setting		Isometric

loop_
_symmetry_equiv_pos_as_xyz
'+x,+y,+z'

loop_
_atom_site_label
_atom_site_type_symbol
_atom_site_fract_x
_atom_site_fract_y
_atom_site_fract_z
1	C	0.006965	0.012444	0.985119
2	C	0.037657	0.03532	0.978475
3	C	0.038845	0.060444	0.949085
4	C	0.007061	0.064325	0.927491
5	C	0.975318	0.043336	0.934009
6	C	0.975592	0.016842	0.962376
7	H	0.059944	0.033504	0.995328
8	H	0.006773	0.083201	0.906739
9	C	0.008219	0.986279	0.014584
10	C	0.038692	0.96242	0.019651
11	C	0.039709	0.937049	0.049139
12	C	0.00905	0.93477	0.07254
13	C	0.978198	0.957401	0.06782
14	C	0.978683	0.983806	0.039694
15	H	0.008642	0.915474	0.092917
16	H	0.95664	0.000848	0.03701
17	O	0.946248	0.994034	0.966318
18	O	0.066156	0.96204	0.994267
19	H	0.926049	0.008772	0.976267
20	H	0.088048	0.972213	0.006167
21	C	0.947575	0.951552	0.089272
22	C	0.94462	0.050462	0.913004
23	C	0.070165	0.081156	0.942208
24	C	0.068896	0.913083	0.054239
25	H	0.938074	0.971168	0.105487
26	H	0.934904	0.031624	0.896016
27	H	0.088877	0.08375	0.961673
28	H	0.082021	0.903509	0.032549
29	C	0.495793	0.990251	0.485157
30	C	0.465093	0.967355	0.478617
31	C	0.463851	0.942197	0.449262
32	C	0.495599	0.938285	0.427622
33	C	0.527355	0.959285	0.434045
34	C	0.527125	0.985828	0.462365
35	H	0.442834	0.969201	0.495503
36	H	0.495842	0.919386	0.406892
37	C	0.494578	0.016466	0.514572
38	C	0.464113	0.040336	0.519616
39	C	0.463131	0.065756	0.549061
40	C	0.493799	0.068057	0.572449
41	C	0.524652	0.045429	0.567733
42	C	0.524144	0.018986	0.53964
43	H	0.494209	0.087381	0.592799
44	H	0.546172	0.001922	0.536973
45	O	0.556474	0.00864	0.466236
46	O	0.436624	0.040673	0.494261
47	H	0.576684	0.993914	0.476185
48	H	0.414743	0.03052	0.506199
49	C	0.55529	0.051294	0.589171
50	C	0.558014	0.952105	0.412995
51	C	0.432527	0.921459	0.442476
52	C	0.433925	0.089686	0.554171
53	H	0.565233	0.031473	0.60487
54	H	0.568226	0.97116	0.396544
55	H	0.41386	0.91886	0.461982
56	H	0.420841	0.099317	0.532479
57	C	0.240884	0.734718	0.234473
58	C	0.218227	0.76537	0.226831
59	C	0.193595	0.765917	0.197046
60	C	0.189452	0.733597	0.176351
61	C	0.210209	0.701942	0.183839
62	C	0.236617	0.702891	0.21228
63	H	0.219851	0.788101	0.243085
64	H	0.170796	0.733022	0.155391
65	C	0.266383	0.736201	0.264568
66	C	0.289436	0.767101	0.270878
67	C	0.313402	0.768275	0.301486
68	C	0.315634	0.737432	0.324612
69	C	0.293851	0.706253	0.318613
70	C	0.26851	0.706499	0.289559
71	H	0.333915	0.737388	0.345932
72	H	0.251688	0.684353	0.286463
73	O	0.259589	0.673734	0.216703
74	O	0.29044	0.794943	0.245939
75	H	0.244873	0.653382	0.226377
76	H	0.279794	0.816633	0.257794
77	C	0.298731	0.676204	0.340929
78	C	0.203556	0.670965	0.163092
79	C	0.173614	0.79717	0.188451
80	C	0.335644	0.798171	0.308877
81	H	0.28356	0.673703	0.36333
82	H	0.22242	0.661955	0.145743
83	H	0.165839	0.814135	0.208251
84	H	0.351089	0.808645	0.289094
85	C	0.262013	0.267916	0.734445
86	C	0.284712	0.237283	0.726859
87	C	0.309433	0.236775	0.697152
88	C	0.313664	0.269122	0.676521
89	C	0.29288	0.300772	0.683964
90	C	0.266351	0.299768	0.712298
91	H	0.283027	0.214524	0.743064
92	H	0.332383	0.269707	0.655616
93	C	0.236397	0.266376	0.764437
94	C	0.213346	0.235445	0.770624
95	C	0.189226	0.234243	0.801106
96	C	0.186815	0.265092	0.824202
97	C	0.208605	0.296291	0.818331
98	C	0.234124	0.296062	0.789431
99	H	0.168412	0.26511	0.845418
100	H	0.250935	0.318227	0.786425
101	O	0.243348	0.328909	0.71667
102	O	0.212486	0.207606	0.745677
103	H	0.258019	0.349261	0.726411
104	H	0.223097	0.185922	0.757579
105	C	0.203495	0.326354	0.840565
106	C	0.299607	0.331771	0.663257
107	C	0.329393	0.20552	0.688543
108	C	0.16705	0.204284	0.80844
109	H	0.219716	0.329992	0.862069
110	H	0.280445	0.341399	0.646573
111	H	0.33719	0.188554	0.708335
112	H	0.151515	0.19391	0.788673
113	C	0.764565	0.246281	0.766228
114	C	0.787628	0.215544	0.772134
115	C	0.813372	0.214246	0.800893
116	C	0.818575	0.246184	0.821948
117	C	0.797741	0.278119	0.815973
118	C	0.76999	0.277706	0.788783
119	H	0.785306	0.193142	0.755533
120	H	0.838046	0.246227	0.842155
121	C	0.73726	0.244962	0.737703
122	C	0.714588	0.21363	0.732062
123	C	0.688943	0.212333	0.70285
124	C	0.684446	0.243832	0.680892
125	C	0.705662	0.275554	0.686235
126	C	0.732921	0.275105	0.713538
127	H	0.665007	0.243873	0.66065
128	H	0.74937	0.297585	0.716177
129	O	0.746921	0.306982	0.786025
130	O	0.715592	0.185353	0.756523
131	H	0.761198	0.327448	0.775934
132	H	0.726102	0.164108	0.74377
133	C	0.698547	0.306399	0.665399
134	C	0.805726	0.308803	0.836809
135	C	0.832887	0.182433	0.808536
136	C	0.668019	0.181318	0.69541
137	H	0.718245	0.31794	0.650657
138	H	0.786829	0.31977	0.852957
139	H	0.839315	0.165133	0.788553
140	H	0.65821	0.166165	0.71574
141	C	0.738255	0.756512	0.266193
142	C	0.715195	0.787248	0.272103
143	C	0.689454	0.788534	0.30086
144	C	0.684227	0.75658	0.321882
145	C	0.705038	0.724633	0.315886
146	C	0.732806	0.725068	0.288714
147	H	0.717542	0.809671	0.255531
148	H	0.664747	0.756534	0.342083
149	C	0.765553	0.757855	0.237663
150	C	0.78823	0.789187	0.232046
151	C	0.813845	0.79052	0.202808
152	C	0.818307	0.759051	0.180803
153	C	0.797098	0.727324	0.186129
154	C	0.769872	0.727735	0.213467
155	H	0.837729	0.759031	0.160541
156	H	0.753413	0.70526	0.216085
157	O	0.755864	0.695782	0.285921
158	O	0.787253	0.817434	0.256545
159	H	0.741576	0.675334	0.275811
160	H	0.776752	0.838702	0.243824
161	C	0.804202	0.696498	0.165264
162	C	0.697015	0.693932	0.336694
163	C	0.66995	0.820347	0.308516
164	C	0.834761	0.821543	0.195381
165	H	0.784452	0.684818	0.150704
166	H	0.716002	0.682698	0.352547
167	H	0.663503	0.837647	0.288542
168	H	0.844658	0.836629	0.21572
169	C	0.502777	0.51225	0.484567
170	C	0.533012	0.535611	0.477446
171	C	0.533556	0.560244	0.44764
172	C	0.501535	0.56339	0.426221
173	C	0.470369	0.541733	0.433142
174	C	0.47125	0.515674	0.461862
175	H	0.555462	0.534473	0.49413
176	H	0.500826	0.581884	0.405128
177	C	0.504358	0.48673	0.514578
178	C	0.535482	0.464031	0.521061
179	C	0.536883	0.439986	0.551654
180	C	0.505873	0.437779	0.574698
181	C	0.474639	0.459488	0.568743
182	C	0.474593	0.484487	0.539427
183	H	0.505805	0.419714	0.596185
184	H	0.452414	0.501278	0.536303
185	O	0.442574	0.492029	0.465848
186	O	0.56342	0.463621	0.496214
187	H	0.421798	0.506281	0.475307
188	H	0.584721	0.47505	0.508045
189	C	0.445244	0.455401	0.592025
190	C	0.440014	0.547053	0.411275
191	C	0.564741	0.580722	0.439644
192	C	0.567561	0.418535	0.559322
193	H	0.447596	0.464351	0.617612
194	H	0.438047	0.533313	0.387895
195	H	0.582341	0.587	0.459419
196	H	0.582787	0.408714	0.539046
197	C	0.999932	0.490538	0.984594
198	C	0.969713	0.467133	0.977547
199	C	0.96915	0.442484	0.947758
200	C	0.001146	0.439341	0.926306
201	C	0.032297	0.461036	0.933161
202	C	0.031429	0.487132	0.961843
203	H	0.947277	0.468279	0.994248
204	H	0.001839	0.42083	0.905224
205	C	0.998362	0.516098	0.014565
206	C	0.967224	0.538784	0.021032
207	C	0.965851	0.562905	0.051562
208	C	0.996896	0.565217	0.074547
209	C	0.028138	0.543522	0.0686
210	C	0.028165	0.518437	0.039361
211	H	0.996983	0.58335	0.095975
212	H	0.050365	0.501674	0.036236
213	O	0.060081	0.510816	0.965763
214	O	0.939251	0.539115	0.996225
215	H	0.080893	0.4966	0.975195
216	H	0.917977	0.527697	0.008115
217	C	0.057571	0.547775	0.091786
218	C	0.062607	0.455715	0.91125
219	C	0.93796	0.422003	0.939787
220	C	0.935164	0.584338	0.059221
221	H	0.05559	0.538319	0.117228
222	H	0.064774	0.469598	0.887974
223	H	0.9204	0.415679	0.959584
224	H	0.919974	0.594202	0.03894
225	C	0.889924	0.872538	0.08994
226	C	0.907336	0.902324	0.10724
227	C	0.89998	0.90768	0.144814
228	N	0.877779	0.88404	0.163078
229	C	0.861333	0.855496	0.145772
230	N	0.868043	0.850063	0.10973
231	O	0.89731	0.863366	0.054419
232	H	0.913127	0.927671	0.159213
233	C	0.870388	0.876996	0.02922
234	H	0.84335	0.865554	0.034872
235	H	0.878403	0.868697	0.001716
236	H	0.868954	0.90686	0.029867
237	N	0.842001	0.829848	0.16201
238	N	0.933711	0.919293	0.089251
239	C	0.61274	0.130367	0.590017
240	C	0.59551	0.100445	0.60728
241	C	0.602841	0.095167	0.644866
242	N	0.625064	0.118797	0.663114
243	C	0.641422	0.147391	0.645807
244	N	0.634605	0.152869	0.609792
245	O	0.605245	0.139595	0.554532
246	H	0.589823	0.075074	0.659244
247	C	0.632089	0.126001	0.529229
248	H	0.659145	0.137426	0.53482
249	H	0.623994	0.134356	0.501765
250	H	0.633514	0.096139	0.529817
251	N	0.66074	0.173051	0.662039
252	N	0.568995	0.08362	0.589379
253	C	0.367127	0.606192	0.340937
254	C	0.344975	0.633103	0.357637
255	C	0.348793	0.637527	0.395844
256	N	0.372945	0.61666	0.414795
257	C	0.393136	0.590126	0.398508
258	N	0.390192	0.58564	0.361686
259	O	0.366123	0.600532	0.303951
260	H	0.33563	0.658199	0.40925
261	C	0.395852	0.61764	0.284704
262	H	0.395704	0.647292	0.288506
263	H	0.392512	0.611999	0.255605
264	H	0.422249	0.606586	0.293342
265	N	0.419664	0.574944	0.417826
266	N	0.328576	0.658054	0.33702
267	C	0.135168	0.396243	0.840825
268	C	0.157411	0.369455	0.857596
269	C	0.153896	0.365346	0.895863
270	N	0.129826	0.386322	0.914798
271	C	0.109574	0.412763	0.89844
272	N	0.112245	0.416959	0.861568
273	O	0.135887	0.401553	0.803778
274	H	0.167019	0.344671	0.909308
275	C	0.105944	0.384379	0.784928
276	H	0.106009	0.354765	0.789012
277	H	0.109077	0.38973	0.755752
278	H	0.079657	0.395617	0.793665
279	N	0.082994	0.427838	0.917766
280	N	0.173376	0.344129	0.837135
281	C	0.612289	0.870563	0.413184
282	C	0.596905	0.901534	0.396035
283	C	0.60579	0.907358	0.35886
284	N	0.627416	0.883072	0.340773
285	C	0.641805	0.853343	0.357903
286	N	0.63365	0.847442	0.393571
287	O	0.603448	0.861084	0.448291
288	H	0.594172	0.928311	0.344515
289	C	0.630278	0.872907	0.474492
290	H	0.65688	0.860266	0.469352
291	H	0.621097	0.86449	0.501592
292	H	0.633169	0.902672	0.474489
293	N	0.660384	0.827181	0.341624
294	N	0.570898	0.919454	0.413652
295	C	0.89028	0.131992	0.913274
296	C	0.905634	0.100981	0.896156
297	C	0.897012	0.095375	0.858882
298	N	0.875445	0.119692	0.84077
299	C	0.861008	0.149388	0.857916
300	N	0.869036	0.155192	0.893625
301	O	0.898965	0.141374	0.948447
302	H	0.908575	0.074378	0.844559
303	C	0.87198	0.129563	0.974492
304	H	0.845434	0.142281	0.969248
305	H	0.881048	0.137903	0.001654
306	H	0.869017	0.099808	0.974413
307	N	0.84245	0.175571	0.84164
308	N	0.93155	0.083036	0.913887
309	C	0.123652	0.61393	0.161515
310	C	0.15431	0.63103	0.145389
311	C	0.160234	0.624424	0.107764
312	N	0.136363	0.603448	0.088476
313	C	0.107304	0.586808	0.104529
314	N	0.100963	0.593247	0.140613
315	O	0.113438	0.621412	0.19672
316	H	0.18059	0.637663	0.093969
317	C	0.124883	0.593715	0.222153
318	H	0.112495	0.567258	0.215797
319	H	0.115871	0.60187	0.249393
320	H	0.154655	0.590982	0.22264
321	N	0.081686	0.572039	0.083643
322	N	0.171234	0.657198	0.163895
323	C	0.379505	0.388723	0.661604
324	C	0.348807	0.371709	0.645465
325	C	0.342704	0.378599	0.607921
326	N	0.366508	0.399706	0.588685
327	C	0.395609	0.416253	0.604761
328	N	0.402092	0.409584	0.640774
329	O	0.389856	0.380998	0.696717
330	H	0.322377	0.365362	0.594079
331	C	0.37835	0.40843	0.722409
332	H	0.390586	0.435	0.716229
333	H	0.387484	0.400103	0.749553
334	H	0.348566	0.411012	0.723008
335	N	0.42106	0.431225	0.583804
336	N	0.332017	0.345336	0.663796
337	C	0.130786	0.134158	0.911581
338	C	0.099793	0.11796	0.894897
339	C	0.092988	0.127409	0.858081
340	N	0.115185	0.151138	0.840144
341	C	0.145091	0.165959	0.856461
342	N	0.152148	0.157381	0.891861
343	O	0.140626	0.126922	0.946905
344	H	0.070621	0.117361	0.844622
345	C	0.131317	0.155773	0.971973
346	H	0.101878	0.160995	0.972189
347	H	0.13943	0.147207	0.999368
348	H	0.145897	0.181033	0.965437
349	N	0.165235	0.191769	0.841268
350	N	0.075189	0.096688	0.911037
351	C	0.371897	0.868388	0.411948
352	C	0.402882	0.884566	0.395234
353	C	0.409672	0.875084	0.358425
354	N	0.387465	0.851343	0.340519
355	C	0.35758	0.83652	0.356871
356	N	0.350533	0.845134	0.392266
357	O	0.362072	0.875673	0.447265
358	H	0.432001	0.885167	0.344928
359	C	0.371394	0.846857	0.472369
360	H	0.400836	0.84164	0.47258
361	H	0.363294	0.85546	0.499757
362	H	0.356817	0.821586	0.465875
363	N	0.337449	0.810683	0.341706
364	N	0.427466	0.905889	0.411332
365	C	0.618261	0.361842	0.664244
366	C	0.648283	0.344884	0.646887
367	C	0.653554	0.352607	0.609373
368	N	0.62987	0.374934	0.591308
369	C	0.601167	0.391018	0.6087
370	N	0.59572	0.383862	0.644661
371	O	0.609212	0.354185	0.699737
372	H	0.673758	0.339843	0.594919
373	C	0.62293	0.380922	0.725092
374	H	0.611488	0.408006	0.719668
375	H	0.614705	0.372713	0.752562
376	H	0.652791	0.382344	0.72437
377	N	0.575669	0.410774	0.59264
378	N	0.665582	0.318501	0.664611
379	C	0.88453	0.641135	0.164112
380	C	0.854462	0.658013	0.146754
381	C	0.849122	0.650176	0.109273
382	N	0.872841	0.627884	0.091213
383	C	0.90163	0.611933	0.108591
384	N	0.90709	0.619128	0.14454
385	O	0.893612	0.648876	0.199577
386	H	0.828907	0.662904	0.094803
387	C	0.879937	0.622183	0.225002
388	H	0.891396	0.595097	0.219622
389	H	0.888187	0.630453	0.252445
390	H	0.850079	0.620736	0.224316
391	N	0.927089	0.592129	0.092538
392	N	0.837179	0.684432	0.164424
393	C	0.380407	0.150085	0.582645
394	C	0.400111	0.122394	0.601262
395	C	0.396068	0.121045	0.639649
396	N	0.374854	0.145805	0.657422
397	C	0.356445	0.172331	0.639048
398	N	0.360012	0.174264	0.602187
399	O	0.383983	0.156021	0.545921
400	H	0.410057	0.102183	0.654837
401	C	0.35259	0.144449	0.52523
402	H	0.328212	0.160034	0.532741
403	H	0.358206	0.149377	0.496354
404	H	0.347273	0.115244	0.528818
405	N	0.337666	0.19862	0.655058
406	N	0.424468	0.09985	0.586504
407	C	0.122378	0.85261	0.082647
408	C	0.102674	0.880276	0.101302
409	C	0.106773	0.881606	0.139685
410	N	0.128045	0.856866	0.157415
411	C	0.146436	0.830348	0.139007
412	N	0.142812	0.828431	0.10215
413	O	0.118758	0.846696	0.045924
414	H	0.092849	0.9005	0.154894
415	C	0.150143	0.858239	0.025204
416	H	0.174508	0.842617	0.032676
417	H	0.144486	0.853337	0.996332
418	H	0.155504	0.887435	0.028804
419	N	0.165265	0.804066	0.154984
420	N	0.078329	0.902852	0.086563
421	C	0.888283	0.361628	0.83626
422	C	0.857088	0.346879	0.853589
423	C	0.851409	0.356467	0.890611
424	N	0.875787	0.378359	0.908271
425	C	0.9057	0.392176	0.890958
426	N	0.911527	0.383266	0.855452
427	O	0.897581	0.352276	0.801243
428	H	0.830214	0.345464	0.905095
429	C	0.885137	0.378449	0.774662
430	H	0.897384	0.405341	0.779244
431	H	0.893511	0.368929	0.747665
432	H	0.855334	0.380867	0.774829
433	N	0.931646	0.411537	0.90683
434	N	0.838681	0.320965	0.836254
435	C	0.614327	0.641332	0.336205
436	C	0.645605	0.655928	0.353512
437	C	0.651368	0.64616	0.390477
438	N	0.62694	0.624306	0.408123
439	C	0.596918	0.610689	0.390846
440	N	0.591056	0.619705	0.355372
441	O	0.60498	0.650829	0.301237
442	H	0.672598	0.657077	0.404967
443	C	0.617344	0.624744	0.274539
444	H	0.605081	0.597848	0.279041
445	H	0.608935	0.634373	0.247592
446	H	0.647147	0.622293	0.27464
447	N	0.570994	0.591281	0.406701
448	N	0.664014	0.681893	0.336259
